#!/usr/bin/env bash

cat << EOF
/*---------------------------------------------------------------------------*\
  =========                 |
  \\      /  F ield         | OpenFOAM: The Open Source CFD Toolbox
   \\    /   O peration     | Website:  https://openfoam.org
    \\  /    A nd           | Version:  6
     \\/     M anipulation  |
\*---------------------------------------------------------------------------*/
Build  : 6-76a8284120c3
Exec   : decomposePar -copyZero
Date   : May 21 2019
Time   : 16:54:58
Host   : "uc1n667.localdomain"
PID    : 20916
I/O    : uncollated
Case   : /pfs/data2/home/es/es_es/es_asaramet/OpenFOAM/motorBike
nProcs : 1
sigFpe : Enabling floating point exception trapping (FOAM_SIGFPE).
fileModificationChecking : Monitoring run-time modified files using timeStampMaster (fileModificationSkew 10)
allowSystemOperations : Allowing user-supplied system call operations

// * * * * * * * * * * * * * * * * * * * * * * * * * * * * * * * * * * * * * //
Create time



Decomposing mesh region0

Create mesh

Calculating distribution of cells
Selecting decompositionMethod hierarchical

Finished decomposition in 0 s

Calculating original mesh data

Distributing cells to processors

Distributing faces to processors

Distributing points to processors

Constructing processor meshes

Processor 0
    Number of cells = 22
    Number of faces shared with processor 1 = 6
    Number of faces shared with processor 7 = 11
    Number of faces shared with processor 28 = 8
    Number of processor patches = 3
    Number of processor faces = 25
    Number of boundary faces = 25

Processor 1
    Number of cells = 22
    Number of faces shared with processor 0 = 6
    Number of faces shared with processor 2 = 10
    Number of faces shared with processor 8 = 11
    Number of faces shared with processor 28 = 2
    Number of faces shared with processor 29 = 4
    Number of processor patches = 5
    Number of processor faces = 33
    Number of boundary faces = 17

Processor 2
    Number of cells = 22
    Number of faces shared with processor 1 = 10
    Number of faces shared with processor 3 = 11
    Number of faces shared with processor 9 = 10
    Number of faces shared with processor 29 = 1
    Number of faces shared with processor 30 = 8
    Number of faces shared with processor 36 = 1
    Number of processor patches = 6
    Number of processor faces = 41
....

Number of processor faces = 1160
Max number of cells = 24 (5% above average 22.8571)
Max number of processor patches = 10 (67.6647% above average 5.96429)
Max number of faces between processors = 58 (40% above average 41.4286)

End
EOF
