
#!/usr/bin/env bash

cat << EOF
/*---------------------------------------------------------------------------*\
  =========                 |
  \\      /  F ield         | OpenFOAM: The Open Source CFD Toolbox
   \\    /   O peration     | Website:  https://openfoam.org
    \\  /    A nd           | Version:  6
     \\/     M anipulation  |
\*---------------------------------------------------------------------------*/
Build  : 6-76a8284120c3
Exec   : simpleFoam -parallel
Date   : May 21 2019
Time   : 16:55:49
Host   : "uc1n667.localdomain"
PID    : 24044
I/O    : uncollated
Case   : /pfs/data2/home/es/es_es/es_asaramet/OpenFOAM/motorBike
nProcs : 56
Slaves :
55
(
"uc1n667.localdomain.24045"
"uc1n668.localdomain.176481"
...
"uc1n668.localdomain.176482"
"uc1n668.localdomain.176483"
)

Pstream initialized with:
    floatTransfer      : 0
    nProcsSimpleSum    : 0
    commsType          : nonBlocking
    polling iterations : 0
sigFpe : Enabling floating point exception trapping (FOAM_SIGFPE).
fileModificationChecking : Monitoring run-time modified files using timeStampMaster (fileModificationSkew 10)
allowSystemOperations : Allowing user-supplied system call operations

// * * * * * * * * * * * * * * * * * * * * * * * * * * * * * * * * * * * * * //
Create time

Create mesh for time = 0


SIMPLE: No convergence criteria found

Reading field p

Reading field U

Reading/calculating face flux field phi

Selecting incompressible transport model Newtonian
Selecting turbulence model type RAS
Selecting RAS turbulence model kOmegaSST
Selecting patchDistMethod meshWave
RAS
{
    RASModel        kOmegaSST;
    turbulence      on;
    printCoeffs     on;
    alphaK1         0.85;
    alphaK2         1;
    alphaOmega1     0.5;
    alphaOmega2     0.856;
    gamma1          0.555556;
    gamma2          0.44;
    beta1           0.075;
    beta2           0.0828;
    betaStar        0.09;
    a1              0.31;
    b1              1;
    c1              10;
    F3              false;
}

No MRF models present

No finite volume options present

Starting time loop

streamLine streamLines:
    automatic track length specified through number of sub cycles : 5

Reading surface description:
    yNormal

forces forceCoeffs1:
    Not including porosity effects
forceCoeffs forceCoeffs1:
    Not including porosity effects
Time = 1

smoothSolver:  Solving for Ux, Initial residual = 0.0865389, Final residual = 0.00847883, No Iterations 7
smoothSolver:  Solving for Uy, Initial residual = 0.586746, Final residual = 0.0525133, No Iterations 7
smoothSolver:  Solving for Uz, Initial residual = 0.399244, Final residual = 0.0365547, No Iterations 6
GAMG:  Solving for p, Initial residual = 1, Final residual = 0.00957959, No Iterations 7
time step continuity errors : sum local = 0.000947108, global = 6.47076e-06, cumulative = 6.47076e-06
smoothSolver:  Solving for omega, Initial residual = 0.00294206, Final residual = 0.000230513, No Iterations 3
bounding omega, min: -138.04 max: 61056.7 average: 195.917
smoothSolver:  Solving for k, Initial residual = 1, Final residual = 0.0778638, No Iterations 4
ExecutionTime = 0.49 s  ClockTime = 1 s

forceCoeffs forceCoeffs1 write:
    Cm    = 0.57881
    Cd    = 1.35899
    Cl    = -0.0378613
    Cl(f) = 0.559879
    Cl(r) = -0.597741

Time = 2

smoothSolver:  Solving for Ux, Initial residual = 0.0386872, Final residual = 0.00338765, No Iterations 8
smoothSolver:  Solving for Uy, Initial residual = 0.384443, Final residual = 0.0299009, No Iterations 8
smoothSolver:  Solving for Uz, Initial residual = 0.165628, Final residual = 0.01486, No Iterations 7
GAMG:  Solving for p, Initial residual = 0.0756091, Final residual = 0.000668088, No Iterations 6
time step continuity errors : sum local = 0.000693605, global = 8.97295e-07, cumulative = 7.36806e-06
smoothSolver:  Solving for omega, Initial residual = 0.00311745, Final residual = 0.000290704, No Iterations 3
bounding omega, min: -1.86694 max: 61056.7 average: 289.942
smoothSolver:  Solving for k, Initial residual = 0.0548593, Final residual = 0.00421178, No Iterations 4
ExecutionTime = 0.55 s  ClockTime = 1 s

forceCoeffs forceCoeffs1 write:
    Cm    = 0.65925
    Cd    = 1.53929
    Cl    = -0.0508849
    Cl(f) = 0.633808
    Cl(r) = -0.684693

....
Time = 499

smoothSolver:  Solving for Ux, Initial residual = 2.23562e-05, Final residual = 2.1734e-06, No Iterations 7
smoothSolver:  Solving for Uy, Initial residual = 0.000517318, Final residual = 4.29997e-05, No Iterations 7
smoothSolver:  Solving for Uz, Initial residual = 0.000439228, Final residual = 3.61077e-05, No Iterations 7
GAMG:  Solving for p, Initial residual = 0.000230073, Final residual = 1.3754e-06, No Iterations 4
time step continuity errors : sum local = 2.65964e-06, global = 3.58745e-08, cumulative = 5.24887e-05
smoothSolver:  Solving for omega, Initial residual = 6.1602e-06, Final residual = 2.79324e-07, No Iterations 3
smoothSolver:  Solving for k, Initial residual = 4.02981e-05, Final residual = 3.66046e-06, No Iterations 3
ExecutionTime = 27.2 s  ClockTime = 28 s

forceCoeffs forceCoeffs1 write:
    Cm    = 0.159865
    Cd    = 0.420677
    Cl    = 0.0641915
    Cl(f) = 0.191961
    Cl(r) = -0.127769

Time = 500

smoothSolver:  Solving for Ux, Initial residual = 2.24283e-05, Final residual = 2.16616e-06, No Iterations 7
smoothSolver:  Solving for Uy, Initial residual = 0.000517249, Final residual = 4.29082e-05, No Iterations 7
smoothSolver:  Solving for Uz, Initial residual = 0.000438548, Final residual = 3.6109e-05, No Iterations 7
GAMG:  Solving for p, Initial residual = 0.000220975, Final residual = 1.27285e-06, No Iterations 4
time step continuity errors : sum local = 2.46128e-06, global = 4.28751e-08, cumulative = 5.25315e-05
smoothSolver:  Solving for omega, Initial residual = 6.20179e-06, Final residual = 2.76437e-07, No Iterations 3
smoothSolver:  Solving for k, Initial residual = 4.05089e-05, Final residual = 3.69326e-06, No Iterations 3
ExecutionTime = 27.27 s  ClockTime = 28 s

streamLine streamLines write:
    seeded 20 particles
    Tracks:20
    Total samples:19802
    Writing data to "/pfs/data2/home/es/es_es/es_asaramet/OpenFOAM/motorBike/postProcessing/sets/streamLines/500"
forceCoeffs forceCoeffs1 write:
    Cm    = 0.159859
    Cd    = 0.420677
    Cl    = 0.0642694
    Cl(f) = 0.191994
    Cl(r) = -0.127724

End

Finalising parallel run
EOF
