
#!/usr/bin/env bash

cat << EOF
/*---------------------------------------------------------------------------*\
  =========                 |
  \\      /  F ield         | OpenFOAM: The Open Source CFD Toolbox
   \\    /   O peration     | Website:  https://openfoam.org
    \\  /    A nd           | Version:  6
     \\/     M anipulation  |
\*---------------------------------------------------------------------------*/
Build  : 6-76a8284120c3
Exec   : simpleFoam -parallel
Date   : May 21 2019
Time   : 16:55:49
Host   : "uc1n667.localdomain"
PID    : 24044
I/O    : uncollated
Case   : /pfs/data2/home/es/es_es/es_asaramet/OpenFOAM/motorBike
nProcs : 56
Slaves :
55
(
"uc1n667.localdomain.24045"
"uc1n667.localdomain.24046"
"uc1n667.localdomain.24047"
"uc1n667.localdomain.24048"
"uc1n667.localdomain.24049"
"uc1n667.localdomain.24050"
"uc1n667.localdomain.24051"
"uc1n667.localdomain.24052"
"uc1n667.localdomain.24053"
"uc1n667.localdomain.24054"
"uc1n667.localdomain.24055"
"uc1n667.localdomain.24056"
"uc1n667.localdomain.24057"
"uc1n667.localdomain.24058"
"uc1n667.localdomain.24059"
"uc1n667.localdomain.24060"
"uc1n667.localdomain.24061"
"uc1n667.localdomain.24062"
"uc1n667.localdomain.24063"
"uc1n667.localdomain.24064"
"uc1n667.localdomain.24065"
"uc1n667.localdomain.24066"
"uc1n667.localdomain.24067"
"uc1n667.localdomain.24068"
"uc1n667.localdomain.24069"
"uc1n667.localdomain.24070"
"uc1n667.localdomain.24071"
"uc1n668.localdomain.176456"
"uc1n668.localdomain.176457"
"uc1n668.localdomain.176458"
"uc1n668.localdomain.176459"
"uc1n668.localdomain.176460"
"uc1n668.localdomain.176461"
"uc1n668.localdomain.176462"
"uc1n668.localdomain.176463"
"uc1n668.localdomain.176464"
"uc1n668.localdomain.176465"
"uc1n668.localdomain.176466"
"uc1n668.localdomain.176467"
"uc1n668.localdomain.176468"
"uc1n668.localdomain.176469"
"uc1n668.localdomain.176470"
"uc1n668.localdomain.176471"
"uc1n668.localdomain.176472"
"uc1n668.localdomain.176473"
"uc1n668.localdomain.176474"
"uc1n668.localdomain.176475"
"uc1n668.localdomain.176476"
"uc1n668.localdomain.176477"
"uc1n668.localdomain.176478"
"uc1n668.localdomain.176479"
"uc1n668.localdomain.176480"
"uc1n668.localdomain.176481"
"uc1n668.localdomain.176482"
"uc1n668.localdomain.176483"
)

Pstream initialized with:
    floatTransfer      : 0
    nProcsSimpleSum    : 0
    commsType          : nonBlocking
    polling iterations : 0
sigFpe : Enabling floating point exception trapping (FOAM_SIGFPE).
fileModificationChecking : Monitoring run-time modified files using timeStampMaster (fileModificationSkew 10)
allowSystemOperations : Allowing user-supplied system call operations

// * * * * * * * * * * * * * * * * * * * * * * * * * * * * * * * * * * * * * //
Create time

Create mesh for time = 0


SIMPLE: No convergence criteria found

Reading field p

Reading field U

Reading/calculating face flux field phi

Selecting incompressible transport model Newtonian
Selecting turbulence model type RAS
Selecting RAS turbulence model kOmegaSST
Selecting patchDistMethod meshWave
RAS
{
    RASModel        kOmegaSST;
    turbulence      on;
    printCoeffs     on;
    alphaK1         0.85;
    alphaK2         1;
    alphaOmega1     0.5;
    alphaOmega2     0.856;
    gamma1          0.555556;
    gamma2          0.44;
    beta1           0.075;
    beta2           0.0828;
    betaStar        0.09;
    a1              0.31;
    b1              1;
    c1              10;
    F3              false;
}

No MRF models present

No finite volume options present

Starting time loop

streamLine streamLines:
    automatic track length specified through number of sub cycles : 5

Reading surface description:
    yNormal

forces forceCoeffs1:
    Not including porosity effects
forceCoeffs forceCoeffs1:
    Not including porosity effects
Time = 1

smoothSolver:  Solving for Ux, Initial residual = 0.0865389, Final residual = 0.00847883, No Iterations 7
smoothSolver:  Solving for Uy, Initial residual = 0.586746, Final residual = 0.0525133, No Iterations 7
smoothSolver:  Solving for Uz, Initial residual = 0.399244, Final residual = 0.0365547, No Iterations 6
GAMG:  Solving for p, Initial residual = 1, Final residual = 0.00957959, No Iterations 7
time step continuity errors : sum local = 0.000947108, global = 6.47076e-06, cumulative = 6.47076e-06
smoothSolver:  Solving for omega, Initial residual = 0.00294206, Final residual = 0.000230513, No Iterations 3
bounding omega, min: -138.04 max: 61056.7 average: 195.917
smoothSolver:  Solving for k, Initial residual = 1, Final residual = 0.0778638, No Iterations 4
ExecutionTime = 0.49 s  ClockTime = 1 s

forceCoeffs forceCoeffs1 write:
    Cm    = 0.57881
    Cd    = 1.35899
    Cl    = -0.0378613
    Cl(f) = 0.559879
    Cl(r) = -0.597741

Time = 2

smoothSolver:  Solving for Ux, Initial residual = 0.0386872, Final residual = 0.00338765, No Iterations 8
smoothSolver:  Solving for Uy, Initial residual = 0.384443, Final residual = 0.0299009, No Iterations 8
smoothSolver:  Solving for Uz, Initial residual = 0.165628, Final residual = 0.01486, No Iterations 7
GAMG:  Solving for p, Initial residual = 0.0756091, Final residual = 0.000668088, No Iterations 6
time step continuity errors : sum local = 0.000693605, global = 8.97295e-07, cumulative = 7.36806e-06
smoothSolver:  Solving for omega, Initial residual = 0.00311745, Final residual = 0.000290704, No Iterations 3
bounding omega, min: -1.86694 max: 61056.7 average: 289.942
smoothSolver:  Solving for k, Initial residual = 0.0548593, Final residual = 0.00421178, No Iterations 4
ExecutionTime = 0.55 s  ClockTime = 1 s

forceCoeffs forceCoeffs1 write:
    Cm    = 0.65925
    Cd    = 1.53929
    Cl    = -0.0508849
    Cl(f) = 0.633808
    Cl(r) = -0.684693

Time = 3

smoothSolver:  Solving for Ux, Initial residual = 0.0197938, Final residual = 0.00197641, No Iterations 8
smoothSolver:  Solving for Uy, Initial residual = 0.296231, Final residual = 0.0244739, No Iterations 8
smoothSolver:  Solving for Uz, Initial residual = 0.110591, Final residual = 0.00835523, No Iterations 8
GAMG:  Solving for p, Initial residual = 0.0513309, Final residual = 0.000399553, No Iterations 6
time step continuity errors : sum local = 0.000580521, global = -6.37001e-06, cumulative = 9.98049e-07
smoothSolver:  Solving for omega, Initial residual = 0.00241942, Final residual = 0.000200887, No Iterations 3
smoothSolver:  Solving for k, Initial residual = 0.0218057, Final residual = 0.0016217, No Iterations 4
ExecutionTime = 0.6 s  ClockTime = 1 s

forceCoeffs forceCoeffs1 write:
    Cm    = 0.576677
    Cd    = 1.33935
    Cl    = -0.0378743
    Cl(f) = 0.55774
    Cl(r) = -0.595614

Time = 4

smoothSolver:  Solving for Ux, Initial residual = 0.0133095, Final residual = 0.00107315, No Iterations 9
smoothSolver:  Solving for Uy, Initial residual = 0.235867, Final residual = 0.0195317, No Iterations 8
smoothSolver:  Solving for Uz, Initial residual = 0.100255, Final residual = 0.00812199, No Iterations 8
GAMG:  Solving for p, Initial residual = 0.0451116, Final residual = 0.000426238, No Iterations 5
time step continuity errors : sum local = 0.000713986, global = -3.15758e-06, cumulative = -2.15953e-06
smoothSolver:  Solving for omega, Initial residual = 0.00195648, Final residual = 0.000172667, No Iterations 3
smoothSolver:  Solving for k, Initial residual = 0.0127184, Final residual = 0.00090928, No Iterations 4
ExecutionTime = 0.65 s  ClockTime = 1 s

forceCoeffs forceCoeffs1 write:
    Cm    = 0.463631
    Cd    = 1.07983
    Cl    = -0.0283703
    Cl(f) = 0.449446
    Cl(r) = -0.477816

Time = 5

smoothSolver:  Solving for Ux, Initial residual = 0.0105322, Final residual = 0.00083063, No Iterations 9
smoothSolver:  Solving for Uy, Initial residual = 0.20227, Final residual = 0.0166702, No Iterations 8
smoothSolver:  Solving for Uz, Initial residual = 0.104481, Final residual = 0.00859053, No Iterations 8
GAMG:  Solving for p, Initial residual = 0.0410707, Final residual = 0.000362948, No Iterations 5
time step continuity errors : sum local = 0.000663738, global = 5.53907e-06, cumulative = 3.37954e-06
smoothSolver:  Solving for omega, Initial residual = 0.00160282, Final residual = 0.000142934, No Iterations 3
smoothSolver:  Solving for k, Initial residual = 0.00924034, Final residual = 0.000631276, No Iterations 4
ExecutionTime = 0.71 s  ClockTime = 1 s

forceCoeffs forceCoeffs1 write:
    Cm    = 0.369151
    Cd    = 0.868414
    Cl    = -0.0175627
    Cl(f) = 0.36037
    Cl(r) = -0.377933

Time = 6

smoothSolver:  Solving for Ux, Initial residual = 0.00848928, Final residual = 0.000840423, No Iterations 8
smoothSolver:  Solving for Uy, Initial residual = 0.17915, Final residual = 0.0145883, No Iterations 8
smoothSolver:  Solving for Uz, Initial residual = 0.111828, Final residual = 0.00911921, No Iterations 8
GAMG:  Solving for p, Initial residual = 0.0367433, Final residual = 0.000282935, No Iterations 5
time step continuity errors : sum local = 0.000561818, global = 5.96183e-06, cumulative = 9.34137e-06
smoothSolver:  Solving for omega, Initial residual = 0.00134349, Final residual = 0.000120517, No Iterations 3
smoothSolver:  Solving for k, Initial residual = 0.00755747, Final residual = 0.000489, No Iterations 4
ExecutionTime = 0.77 s  ClockTime = 1 s

forceCoeffs forceCoeffs1 write:
    Cm    = 0.301176
    Cd    = 0.716558
    Cl    = -0.00403248
    Cl(f) = 0.29916
    Cl(r) = -0.303192

Time = 7

smoothSolver:  Solving for Ux, Initial residual = 0.00711687, Final residual = 0.000677976, No Iterations 8
smoothSolver:  Solving for Uy, Initial residual = 0.162271, Final residual = 0.0129866, No Iterations 8
smoothSolver:  Solving for Uz, Initial residual = 0.123828, Final residual = 0.00986901, No Iterations 8
GAMG:  Solving for p, Initial residual = 0.0327881, Final residual = 0.000292746, No Iterations 4
time step continuity errors : sum local = 0.000618921, global = -8.29514e-07, cumulative = 8.51186e-06
smoothSolver:  Solving for omega, Initial residual = 0.00116313, Final residual = 0.000102234, No Iterations 3
smoothSolver:  Solving for k, Initial residual = 0.00658535, Final residual = 0.00040222, No Iterations 4
ExecutionTime = 0.81 s  ClockTime = 1 s

forceCoeffs forceCoeffs1 write:
    Cm    = 0.254845
    Cd    = 0.612083
    Cl    = 0.00657763
    Cl(f) = 0.258134
    Cl(r) = -0.251556

Time = 8

smoothSolver:  Solving for Ux, Initial residual = 0.00611938, Final residual = 0.000569201, No Iterations 8
smoothSolver:  Solving for Uy, Initial residual = 0.144876, Final residual = 0.0113557, No Iterations 8
smoothSolver:  Solving for Uz, Initial residual = 0.13522, Final residual = 0.0104746, No Iterations 8
GAMG:  Solving for p, Initial residual = 0.0300794, Final residual = 0.0002352, No Iterations 4
time step continuity errors : sum local = 0.000515657, global = 5.57576e-07, cumulative = 9.06944e-06
smoothSolver:  Solving for omega, Initial residual = 0.00102168, Final residual = 8.86598e-05, No Iterations 3
smoothSolver:  Solving for k, Initial residual = 0.00591482, Final residual = 0.000343137, No Iterations 4
ExecutionTime = 0.86 s  ClockTime = 1 s

forceCoeffs forceCoeffs1 write:
    Cm    = 0.22385
    Cd    = 0.543954
    Cl    = 0.0133598
    Cl(f) = 0.23053
    Cl(r) = -0.21717

Time = 9

smoothSolver:  Solving for Ux, Initial residual = 0.005363, Final residual = 0.000497658, No Iterations 8
smoothSolver:  Solving for Uy, Initial residual = 0.129321, Final residual = 0.009887, No Iterations 8
smoothSolver:  Solving for Uz, Initial residual = 0.138904, Final residual = 0.0105829, No Iterations 8
GAMG:  Solving for p, Initial residual = 0.0281677, Final residual = 0.000186641, No Iterations 4
time step continuity errors : sum local = 0.000416995, global = 2.32161e-06, cumulative = 1.1391e-05
smoothSolver:  Solving for omega, Initial residual = 0.000910747, Final residual = 7.80761e-05, No Iterations 3
smoothSolver:  Solving for k, Initial residual = 0.00537647, Final residual = 0.00029883, No Iterations 4
ExecutionTime = 0.91 s  ClockTime = 1 s

forceCoeffs forceCoeffs1 write:
    Cm    = 0.204924
    Cd    = 0.502331
    Cl    = 0.0165665
    Cl(f) = 0.213208
    Cl(r) = -0.196641

Time = 10

smoothSolver:  Solving for Ux, Initial residual = 0.00478876, Final residual = 0.000443194, No Iterations 8
smoothSolver:  Solving for Uy, Initial residual = 0.117123, Final residual = 0.0116971, No Iterations 7
smoothSolver:  Solving for Uz, Initial residual = 0.121898, Final residual = 0.00916853, No Iterations 8
GAMG:  Solving for p, Initial residual = 0.0266488, Final residual = 0.000155569, No Iterations 4
time step continuity errors : sum local = 0.000349996, global = 3.76028e-06, cumulative = 1.51513e-05
smoothSolver:  Solving for omega, Initial residual = 0.000827004, Final residual = 6.9876e-05, No Iterations 3
smoothSolver:  Solving for k, Initial residual = 0.00497711, Final residual = 0.000265796, No Iterations 4
ExecutionTime = 0.96 s  ClockTime = 1 s

forceCoeffs forceCoeffs1 write:
    Cm    = 0.192962
    Cd    = 0.476771
    Cl    = 0.0197333
    Cl(f) = 0.202828
    Cl(r) = -0.183095

Time = 11

smoothSolver:  Solving for Ux, Initial residual = 0.00435381, Final residual = 0.000403249, No Iterations 8
smoothSolver:  Solving for Uy, Initial residual = 0.105736, Final residual = 0.0104701, No Iterations 7
smoothSolver:  Solving for Uz, Initial residual = 0.110796, Final residual = 0.0110175, No Iterations 7
GAMG:  Solving for p, Initial residual = 0.0255122, Final residual = 0.000142258, No Iterations 4
time step continuity errors : sum local = 0.000318833, global = 3.67853e-06, cumulative = 1.88299e-05
smoothSolver:  Solving for omega, Initial residual = 0.000765165, Final residual = 6.37109e-05, No Iterations 3
smoothSolver:  Solving for k, Initial residual = 0.00470428, Final residual = 0.000241824, No Iterations 4
ExecutionTime = 1.01 s  ClockTime = 1 s

forceCoeffs forceCoeffs1 write:
    Cm    = 0.185287
    Cd    = 0.459686
    Cl    = 0.0225296
    Cl(f) = 0.196552
    Cl(r) = -0.174022

Time = 12

smoothSolver:  Solving for Ux, Initial residual = 0.00407105, Final residual = 0.000375388, No Iterations 8
smoothSolver:  Solving for Uy, Initial residual = 0.0970154, Final residual = 0.00969633, No Iterations 7
smoothSolver:  Solving for Uz, Initial residual = 0.105565, Final residual = 0.00800538, No Iterations 8
GAMG:  Solving for p, Initial residual = 0.0245024, Final residual = 0.000136172, No Iterations 4
time step continuity errors : sum local = 0.000301914, global = 4.65655e-06, cumulative = 2.34864e-05
smoothSolver:  Solving for omega, Initial residual = 0.000715062, Final residual = 5.89071e-05, No Iterations 3
smoothSolver:  Solving for k, Initial residual = 0.00451729, Final residual = 0.000224138, No Iterations 4
ExecutionTime = 1.06 s  ClockTime = 1 s

forceCoeffs forceCoeffs1 write:
    Cm    = 0.180587
    Cd    = 0.448192
    Cl    = 0.0266092
    Cl(f) = 0.193891
    Cl(r) = -0.167282

Time = 13

smoothSolver:  Solving for Ux, Initial residual = 0.00386551, Final residual = 0.000354361, No Iterations 8
smoothSolver:  Solving for Uy, Initial residual = 0.0890671, Final residual = 0.00676101, No Iterations 8
smoothSolver:  Solving for Uz, Initial residual = 0.102414, Final residual = 0.00782334, No Iterations 8
GAMG:  Solving for p, Initial residual = 0.0237235, Final residual = 0.00013799, No Iterations 4
time step continuity errors : sum local = 0.000301914, global = 6.89152e-06, cumulative = 3.03779e-05
smoothSolver:  Solving for omega, Initial residual = 0.000669592, Final residual = 5.50184e-05, No Iterations 3
smoothSolver:  Solving for k, Initial residual = 0.00435552, Final residual = 0.000211365, No Iterations 4
ExecutionTime = 1.11 s  ClockTime = 1 s

forceCoeffs forceCoeffs1 write:
    Cm    = 0.178275
    Cd    = 0.440932
    Cl    = 0.0306395
    Cl(f) = 0.193594
    Cl(r) = -0.162955

Time = 14

smoothSolver:  Solving for Ux, Initial residual = 0.00370302, Final residual = 0.000340269, No Iterations 8
smoothSolver:  Solving for Uy, Initial residual = 0.0822726, Final residual = 0.00636146, No Iterations 8
smoothSolver:  Solving for Uz, Initial residual = 0.0950252, Final residual = 0.00730967, No Iterations 8
GAMG:  Solving for p, Initial residual = 0.0231072, Final residual = 0.00014126, No Iterations 4
time step continuity errors : sum local = 0.000305027, global = 5.49357e-06, cumulative = 3.58715e-05
smoothSolver:  Solving for omega, Initial residual = 0.000627364, Final residual = 5.17704e-05, No Iterations 3
smoothSolver:  Solving for k, Initial residual = 0.00424617, Final residual = 0.000204325, No Iterations 4
ExecutionTime = 1.15 s  ClockTime = 1 s

forceCoeffs forceCoeffs1 write:
    Cm    = 0.178282
    Cd    = 0.437562
    Cl    = 0.0350669
    Cl(f) = 0.195815
    Cl(r) = -0.160748

Time = 15

smoothSolver:  Solving for Ux, Initial residual = 0.00353483, Final residual = 0.000327207, No Iterations 8
smoothSolver:  Solving for Uy, Initial residual = 0.0759566, Final residual = 0.00597194, No Iterations 8
smoothSolver:  Solving for Uz, Initial residual = 0.0841581, Final residual = 0.00649517, No Iterations 8
GAMG:  Solving for p, Initial residual = 0.0223554, Final residual = 0.000142744, No Iterations 4
time step continuity errors : sum local = 0.000305218, global = 3.19962e-06, cumulative = 3.90711e-05
smoothSolver:  Solving for omega, Initial residual = 0.000591802, Final residual = 4.88857e-05, No Iterations 3
smoothSolver:  Solving for k, Initial residual = 0.00415522, Final residual = 0.000200474, No Iterations 4
ExecutionTime = 1.2 s  ClockTime = 1 s

forceCoeffs forceCoeffs1 write:
    Cm    = 0.178816
    Cd    = 0.435042
    Cl    = 0.040286
    Cl(f) = 0.198959
    Cl(r) = -0.158673

Time = 16

smoothSolver:  Solving for Ux, Initial residual = 0.00335499, Final residual = 0.000313183, No Iterations 8
smoothSolver:  Solving for Uy, Initial residual = 0.0703199, Final residual = 0.00557306, No Iterations 8
smoothSolver:  Solving for Uz, Initial residual = 0.0751607, Final residual = 0.00577767, No Iterations 8
GAMG:  Solving for p, Initial residual = 0.0215431, Final residual = 0.000134029, No Iterations 4
time step continuity errors : sum local = 0.000285469, global = -2.03617e-07, cumulative = 3.88675e-05
smoothSolver:  Solving for omega, Initial residual = 0.000555932, Final residual = 4.61347e-05, No Iterations 3
smoothSolver:  Solving for k, Initial residual = 0.00403726, Final residual = 0.000197115, No Iterations 4
ExecutionTime = 1.25 s  ClockTime = 1 s

forceCoeffs forceCoeffs1 write:
    Cm    = 0.178967
    Cd    = 0.43273
    Cl    = 0.0461436
    Cl(f) = 0.202039
    Cl(r) = -0.155896

Time = 17

smoothSolver:  Solving for Ux, Initial residual = 0.00318432, Final residual = 0.0002985, No Iterations 8
smoothSolver:  Solving for Uy, Initial residual = 0.06565, Final residual = 0.00523377, No Iterations 8
smoothSolver:  Solving for Uz, Initial residual = 0.0685218, Final residual = 0.00522195, No Iterations 8
GAMG:  Solving for p, Initial residual = 0.0206948, Final residual = 0.00011758, No Iterations 4
time step continuity errors : sum local = 0.000250559, global = -2.28749e-06, cumulative = 3.658e-05
smoothSolver:  Solving for omega, Initial residual = 0.000526359, Final residual = 4.36479e-05, No Iterations 3
smoothSolver:  Solving for k, Initial residual = 0.00395482, Final residual = 0.000193913, No Iterations 4
ExecutionTime = 1.31 s  ClockTime = 1 s

forceCoeffs forceCoeffs1 write:
    Cm    = 0.179007
    Cd    = 0.431039
    Cl    = 0.0511459
    Cl(f) = 0.20458
    Cl(r) = -0.153434

Time = 18

smoothSolver:  Solving for Ux, Initial residual = 0.0030185, Final residual = 0.000281801, No Iterations 8
smoothSolver:  Solving for Uy, Initial residual = 0.0618012, Final residual = 0.00488473, No Iterations 8
smoothSolver:  Solving for Uz, Initial residual = 0.0633542, Final residual = 0.00482226, No Iterations 8
GAMG:  Solving for p, Initial residual = 0.0197914, Final residual = 0.00011172, No Iterations 4
time step continuity errors : sum local = 0.000238415, global = -2.76163e-06, cumulative = 3.38184e-05
smoothSolver:  Solving for omega, Initial residual = 0.00049864, Final residual = 4.1467e-05, No Iterations 3
smoothSolver:  Solving for k, Initial residual = 0.00389381, Final residual = 0.000189766, No Iterations 4
ExecutionTime = 1.36 s  ClockTime = 1 s

forceCoeffs forceCoeffs1 write:
    Cm    = 0.179373
    Cd    = 0.430447
    Cl    = 0.0540505
    Cl(f) = 0.206399
    Cl(r) = -0.152348

Time = 19

smoothSolver:  Solving for Ux, Initial residual = 0.00286857, Final residual = 0.000267855, No Iterations 8
smoothSolver:  Solving for Uy, Initial residual = 0.0581553, Final residual = 0.00456632, No Iterations 8
smoothSolver:  Solving for Uz, Initial residual = 0.0596748, Final residual = 0.00455189, No Iterations 8
GAMG:  Solving for p, Initial residual = 0.0191105, Final residual = 0.000100583, No Iterations 4
time step continuity errors : sum local = 0.000214612, global = -2.90368e-06, cumulative = 3.09147e-05
smoothSolver:  Solving for omega, Initial residual = 0.000475187, Final residual = 3.94657e-05, No Iterations 3
smoothSolver:  Solving for k, Initial residual = 0.00383786, Final residual = 0.000184959, No Iterations 4
ExecutionTime = 1.41 s  ClockTime = 2 s

forceCoeffs forceCoeffs1 write:
    Cm    = 0.179664
    Cd    = 0.429795
    Cl    = 0.0548423
    Cl(f) = 0.207085
    Cl(r) = -0.152242

Time = 20

smoothSolver:  Solving for Ux, Initial residual = 0.00273752, Final residual = 0.0002558, No Iterations 8
smoothSolver:  Solving for Uy, Initial residual = 0.0550467, Final residual = 0.00430982, No Iterations 8
smoothSolver:  Solving for Uz, Initial residual = 0.0570839, Final residual = 0.00435955, No Iterations 8
GAMG:  Solving for p, Initial residual = 0.0185448, Final residual = 9.60163e-05, No Iterations 4
time step continuity errors : sum local = 0.000204414, global = -2.06329e-06, cumulative = 2.88514e-05
smoothSolver:  Solving for omega, Initial residual = 0.000452985, Final residual = 3.75938e-05, No Iterations 3
smoothSolver:  Solving for k, Initial residual = 0.00379171, Final residual = 0.000181075, No Iterations 4
ExecutionTime = 1.46 s  ClockTime = 2 s

forceCoeffs forceCoeffs1 write:
    Cm    = 0.179861
    Cd    = 0.428755
    Cl    = 0.0538968
    Cl(f) = 0.206809
    Cl(r) = -0.152913

Time = 21

smoothSolver:  Solving for Ux, Initial residual = 0.00261685, Final residual = 0.000245174, No Iterations 8
smoothSolver:  Solving for Uy, Initial residual = 0.0524382, Final residual = 0.00410569, No Iterations 8
smoothSolver:  Solving for Uz, Initial residual = 0.0548528, Final residual = 0.00421004, No Iterations 8
GAMG:  Solving for p, Initial residual = 0.0179052, Final residual = 9.50114e-05, No Iterations 4
time step continuity errors : sum local = 0.000201548, global = -1.63764e-07, cumulative = 2.86877e-05
smoothSolver:  Solving for omega, Initial residual = 0.000431343, Final residual = 3.58534e-05, No Iterations 3
smoothSolver:  Solving for k, Initial residual = 0.00373414, Final residual = 0.00017819, No Iterations 4
ExecutionTime = 1.51 s  ClockTime = 2 s

forceCoeffs forceCoeffs1 write:
    Cm    = 0.179836
    Cd    = 0.427686
    Cl    = 0.052092
    Cl(f) = 0.205882
    Cl(r) = -0.15379

Time = 22

smoothSolver:  Solving for Ux, Initial residual = 0.00250552, Final residual = 0.000236041, No Iterations 8
smoothSolver:  Solving for Uy, Initial residual = 0.0501914, Final residual = 0.00398056, No Iterations 8
smoothSolver:  Solving for Uz, Initial residual = 0.0522856, Final residual = 0.0040678, No Iterations 8
GAMG:  Solving for p, Initial residual = 0.0171264, Final residual = 9.22506e-05, No Iterations 4
time step continuity errors : sum local = 0.000194669, global = 1.83696e-06, cumulative = 3.05246e-05
smoothSolver:  Solving for omega, Initial residual = 0.000408912, Final residual = 3.42165e-05, No Iterations 3
smoothSolver:  Solving for k, Initial residual = 0.00363614, Final residual = 0.000174779, No Iterations 4
ExecutionTime = 1.56 s  ClockTime = 2 s

forceCoeffs forceCoeffs1 write:
    Cm    = 0.179275
    Cd    = 0.426634
    Cl    = 0.0504656
    Cl(f) = 0.204507
    Cl(r) = -0.154042

Time = 23

smoothSolver:  Solving for Ux, Initial residual = 0.00240131, Final residual = 0.000228112, No Iterations 8
smoothSolver:  Solving for Uy, Initial residual = 0.0482969, Final residual = 0.00390538, No Iterations 8
smoothSolver:  Solving for Uz, Initial residual = 0.0497351, Final residual = 0.00392107, No Iterations 8
GAMG:  Solving for p, Initial residual = 0.016415, Final residual = 8.70894e-05, No Iterations 4
time step continuity errors : sum local = 0.000182865, global = 2.60658e-06, cumulative = 3.31312e-05
smoothSolver:  Solving for omega, Initial residual = 0.00038591, Final residual = 3.24153e-05, No Iterations 3
smoothSolver:  Solving for k, Initial residual = 0.00349868, Final residual = 0.000170531, No Iterations 4
ExecutionTime = 1.61 s  ClockTime = 2 s

forceCoeffs forceCoeffs1 write:
    Cm    = 0.177781
    Cd    = 0.424909
    Cl    = 0.0498348
    Cl(f) = 0.202698
    Cl(r) = -0.152864

Time = 24

smoothSolver:  Solving for Ux, Initial residual = 0.00230563, Final residual = 0.00022063, No Iterations 8
smoothSolver:  Solving for Uy, Initial residual = 0.0468396, Final residual = 0.00381156, No Iterations 8
smoothSolver:  Solving for Uz, Initial residual = 0.0472816, Final residual = 0.00374332, No Iterations 8
GAMG:  Solving for p, Initial residual = 0.0158072, Final residual = 8.00929e-05, No Iterations 4
time step continuity errors : sum local = 0.0001672, global = 2.09074e-06, cumulative = 3.52219e-05
smoothSolver:  Solving for omega, Initial residual = 0.000365189, Final residual = 3.1049e-05, No Iterations 3
smoothSolver:  Solving for k, Initial residual = 0.00338165, Final residual = 0.000166764, No Iterations 4
ExecutionTime = 1.66 s  ClockTime = 2 s

forceCoeffs forceCoeffs1 write:
    Cm    = 0.175544
    Cd    = 0.422834
    Cl    = 0.0505365
    Cl(f) = 0.200812
    Cl(r) = -0.150275

Time = 25

smoothSolver:  Solving for Ux, Initial residual = 0.00220941, Final residual = 0.000212396, No Iterations 8
smoothSolver:  Solving for Uy, Initial residual = 0.0451123, Final residual = 0.00363675, No Iterations 8
smoothSolver:  Solving for Uz, Initial residual = 0.0446484, Final residual = 0.00353393, No Iterations 8
GAMG:  Solving for p, Initial residual = 0.0151945, Final residual = 7.37694e-05, No Iterations 4
time step continuity errors : sum local = 0.000153029, global = 2.30675e-06, cumulative = 3.75287e-05
smoothSolver:  Solving for omega, Initial residual = 0.000347645, Final residual = 2.9858e-05, No Iterations 3
smoothSolver:  Solving for k, Initial residual = 0.00330546, Final residual = 0.000164085, No Iterations 4
ExecutionTime = 1.71 s  ClockTime = 2 s

forceCoeffs forceCoeffs1 write:
    Cm    = 0.172877
    Cd    = 0.420526
    Cl    = 0.0524672
    Cl(f) = 0.199111
    Cl(r) = -0.146644

Time = 26

smoothSolver:  Solving for Ux, Initial residual = 0.00210709, Final residual = 0.000203264, No Iterations 8
smoothSolver:  Solving for Uy, Initial residual = 0.0433199, Final residual = 0.00344389, No Iterations 8
smoothSolver:  Solving for Uz, Initial residual = 0.0420309, Final residual = 0.00331837, No Iterations 8
GAMG:  Solving for p, Initial residual = 0.0145543, Final residual = 6.86993e-05, No Iterations 4
time step continuity errors : sum local = 0.000141413, global = 2.00776e-06, cumulative = 3.95364e-05
smoothSolver:  Solving for omega, Initial residual = 0.000331959, Final residual = 2.87016e-05, No Iterations 3
smoothSolver:  Solving for k, Initial residual = 0.00323029, Final residual = 0.000161131, No Iterations 4
ExecutionTime = 1.76 s  ClockTime = 2 s

forceCoeffs forceCoeffs1 write:
    Cm    = 0.17034
    Cd    = 0.41863
    Cl    = 0.0549801
    Cl(f) = 0.19783
    Cl(r) = -0.14285

Time = 27

smoothSolver:  Solving for Ux, Initial residual = 0.00198644, Final residual = 0.000192912, No Iterations 8
smoothSolver:  Solving for Uy, Initial residual = 0.0414421, Final residual = 0.00324751, No Iterations 8
smoothSolver:  Solving for Uz, Initial residual = 0.0391631, Final residual = 0.00306866, No Iterations 8
GAMG:  Solving for p, Initial residual = 0.0139643, Final residual = 6.52906e-05, No Iterations 4
time step continuity errors : sum local = 0.000133317, global = 1.52794e-06, cumulative = 4.10644e-05
smoothSolver:  Solving for omega, Initial residual = 0.000316272, Final residual = 2.76181e-05, No Iterations 3
smoothSolver:  Solving for k, Initial residual = 0.00315734, Final residual = 0.000158723, No Iterations 4
ExecutionTime = 1.81 s  ClockTime = 2 s

forceCoeffs forceCoeffs1 write:
    Cm    = 0.168135
    Cd    = 0.416964
    Cl    = 0.0575916
    Cl(f) = 0.196931
    Cl(r) = -0.139339

Time = 28

smoothSolver:  Solving for Ux, Initial residual = 0.0018692, Final residual = 0.000182547, No Iterations 8
smoothSolver:  Solving for Uy, Initial residual = 0.039147, Final residual = 0.00303285, No Iterations 8
smoothSolver:  Solving for Uz, Initial residual = 0.0363663, Final residual = 0.00282387, No Iterations 8
GAMG:  Solving for p, Initial residual = 0.0133713, Final residual = 6.16995e-05, No Iterations 4
time step continuity errors : sum local = 0.000125026, global = 9.84724e-07, cumulative = 4.20491e-05
smoothSolver:  Solving for omega, Initial residual = 0.000300892, Final residual = 2.65895e-05, No Iterations 3
smoothSolver:  Solving for k, Initial residual = 0.00308679, Final residual = 0.00015611, No Iterations 4
ExecutionTime = 1.86 s  ClockTime = 2 s

forceCoeffs forceCoeffs1 write:
    Cm    = 0.166347
    Cd    = 0.415477
    Cl    = 0.0597172
    Cl(f) = 0.196206
    Cl(r) = -0.136489

Time = 29

smoothSolver:  Solving for Ux, Initial residual = 0.00176038, Final residual = 0.000172743, No Iterations 8
smoothSolver:  Solving for Uy, Initial residual = 0.0366672, Final residual = 0.00282135, No Iterations 8
smoothSolver:  Solving for Uz, Initial residual = 0.0338447, Final residual = 0.00261224, No Iterations 8
GAMG:  Solving for p, Initial residual = 0.0128341, Final residual = 5.86234e-05, No Iterations 4
time step continuity errors : sum local = 0.000117955, global = 5.79534e-07, cumulative = 4.26286e-05
smoothSolver:  Solving for omega, Initial residual = 0.000287407, Final residual = 2.56394e-05, No Iterations 3
smoothSolver:  Solving for k, Initial residual = 0.00301964, Final residual = 0.000153807, No Iterations 4
ExecutionTime = 1.91 s  ClockTime = 2 s

forceCoeffs forceCoeffs1 write:
    Cm    = 0.164989
    Cd    = 0.414115
    Cl    = 0.0613317
    Cl(f) = 0.195655
    Cl(r) = -0.134323

Time = 30

smoothSolver:  Solving for Ux, Initial residual = 0.00166568, Final residual = 0.000162893, No Iterations 8
smoothSolver:  Solving for Uy, Initial residual = 0.0341925, Final residual = 0.00261999, No Iterations 8
smoothSolver:  Solving for Uz, Initial residual = 0.0317324, Final residual = 0.0024587, No Iterations 8
GAMG:  Solving for p, Initial residual = 0.0123078, Final residual = 5.71043e-05, No Iterations 4
time step continuity errors : sum local = 0.000114166, global = 4.63236e-07, cumulative = 4.30919e-05
smoothSolver:  Solving for omega, Initial residual = 0.000275851, Final residual = 2.47238e-05, No Iterations 3
smoothSolver:  Solving for k, Initial residual = 0.00294959, Final residual = 0.000151511, No Iterations 4
ExecutionTime = 1.96 s  ClockTime = 2 s

forceCoeffs forceCoeffs1 write:
    Cm    = 0.164169
    Cd    = 0.413248
    Cl    = 0.0624028
    Cl(f) = 0.19537
    Cl(r) = -0.132967

Time = 31

smoothSolver:  Solving for Ux, Initial residual = 0.00156683, Final residual = 0.000152799, No Iterations 8
smoothSolver:  Solving for Uy, Initial residual = 0.031935, Final residual = 0.0024228, No Iterations 8
smoothSolver:  Solving for Uz, Initial residual = 0.029918, Final residual = 0.00231762, No Iterations 8
GAMG:  Solving for p, Initial residual = 0.0118033, Final residual = 5.6229e-05, No Iterations 4
time step continuity errors : sum local = 0.00011175, global = 3.93131e-07, cumulative = 4.3485e-05
smoothSolver:  Solving for omega, Initial residual = 0.000263529, Final residual = 2.3831e-05, No Iterations 3
smoothSolver:  Solving for k, Initial residual = 0.0028727, Final residual = 0.000149363, No Iterations 4
ExecutionTime = 2.01 s  ClockTime = 2 s

forceCoeffs forceCoeffs1 write:
    Cm    = 0.163807
    Cd    = 0.412762
    Cl    = 0.0630828
    Cl(f) = 0.195348
    Cl(r) = -0.132266

Time = 32

smoothSolver:  Solving for Ux, Initial residual = 0.00147929, Final residual = 0.000142376, No Iterations 8
smoothSolver:  Solving for Uy, Initial residual = 0.0298563, Final residual = 0.00297316, No Iterations 7
smoothSolver:  Solving for Uz, Initial residual = 0.0281924, Final residual = 0.00216554, No Iterations 8
GAMG:  Solving for p, Initial residual = 0.011338, Final residual = 5.48102e-05, No Iterations 4
time step continuity errors : sum local = 0.000108342, global = 2.89751e-07, cumulative = 4.37748e-05
smoothSolver:  Solving for omega, Initial residual = 0.000251965, Final residual = 2.28478e-05, No Iterations 3
smoothSolver:  Solving for k, Initial residual = 0.00279318, Final residual = 0.000146182, No Iterations 4
ExecutionTime = 2.06 s  ClockTime = 2 s

forceCoeffs forceCoeffs1 write:
    Cm    = 0.16376
    Cd    = 0.412608
    Cl    = 0.0634435
    Cl(f) = 0.195482
    Cl(r) = -0.132038

Time = 33

smoothSolver:  Solving for Ux, Initial residual = 0.00139412, Final residual = 0.000133503, No Iterations 8
smoothSolver:  Solving for Uy, Initial residual = 0.0281905, Final residual = 0.0027998, No Iterations 7
smoothSolver:  Solving for Uz, Initial residual = 0.0265032, Final residual = 0.00201559, No Iterations 8
GAMG:  Solving for p, Initial residual = 0.010933, Final residual = 5.30148e-05, No Iterations 4
time step continuity errors : sum local = 0.000104206, global = 3.05215e-07, cumulative = 4.408e-05
smoothSolver:  Solving for omega, Initial residual = 0.000240748, Final residual = 2.17466e-05, No Iterations 3
smoothSolver:  Solving for k, Initial residual = 0.0026987, Final residual = 0.00014196, No Iterations 4
ExecutionTime = 2.11 s  ClockTime = 2 s

forceCoeffs forceCoeffs1 write:
    Cm    = 0.163895
    Cd    = 0.412709
    Cl    = 0.0636416
    Cl(f) = 0.195716
    Cl(r) = -0.132075

Time = 34

smoothSolver:  Solving for Ux, Initial residual = 0.00132295, Final residual = 0.000126186, No Iterations 8
smoothSolver:  Solving for Uy, Initial residual = 0.0271209, Final residual = 0.00268038, No Iterations 7
smoothSolver:  Solving for Uz, Initial residual = 0.0251926, Final residual = 0.00247996, No Iterations 7
GAMG:  Solving for p, Initial residual = 0.0105444, Final residual = 5.03062e-05, No Iterations 4
time step continuity errors : sum local = 9.83645e-05, global = 2.18951e-07, cumulative = 4.42989e-05
smoothSolver:  Solving for omega, Initial residual = 0.000230927, Final residual = 2.07086e-05, No Iterations 3
smoothSolver:  Solving for k, Initial residual = 0.00261652, Final residual = 0.000137303, No Iterations 4
ExecutionTime = 2.15 s  ClockTime = 2 s

forceCoeffs forceCoeffs1 write:
    Cm    = 0.163985
    Cd    = 0.412778
    Cl    = 0.0638675
    Cl(f) = 0.195919
    Cl(r) = -0.132052

Time = 35

smoothSolver:  Solving for Ux, Initial residual = 0.00126644, Final residual = 0.000119809, No Iterations 8
smoothSolver:  Solving for Uy, Initial residual = 0.0264239, Final residual = 0.00258608, No Iterations 7
smoothSolver:  Solving for Uz, Initial residual = 0.0242029, Final residual = 0.00234184, No Iterations 7
GAMG:  Solving for p, Initial residual = 0.0102358, Final residual = 4.78792e-05, No Iterations 4
time step continuity errors : sum local = 9.31737e-05, global = 2.83682e-07, cumulative = 4.45826e-05
smoothSolver:  Solving for omega, Initial residual = 0.000222685, Final residual = 1.98409e-05, No Iterations 3
smoothSolver:  Solving for k, Initial residual = 0.00256183, Final residual = 0.000133067, No Iterations 4
ExecutionTime = 2.2 s  ClockTime = 2 s

forceCoeffs forceCoeffs1 write:
    Cm    = 0.164135
    Cd    = 0.412939
    Cl    = 0.0642042
    Cl(f) = 0.196237
    Cl(r) = -0.132033

Time = 36

smoothSolver:  Solving for Ux, Initial residual = 0.00122304, Final residual = 0.000114001, No Iterations 8
smoothSolver:  Solving for Uy, Initial residual = 0.0258908, Final residual = 0.00249952, No Iterations 7
smoothSolver:  Solving for Uz, Initial residual = 0.0233986, Final residual = 0.00222157, No Iterations 7
GAMG:  Solving for p, Initial residual = 0.00993438, Final residual = 4.66141e-05, No Iterations 4
time step continuity errors : sum local = 9.03328e-05, global = 3.9977e-07, cumulative = 4.49824e-05
smoothSolver:  Solving for omega, Initial residual = 0.000213859, Final residual = 1.89783e-05, No Iterations 3
smoothSolver:  Solving for k, Initial residual = 0.00251725, Final residual = 0.00012914, No Iterations 4
ExecutionTime = 2.25 s  ClockTime = 2 s

forceCoeffs forceCoeffs1 write:
    Cm    = 0.164273
    Cd    = 0.41313
    Cl    = 0.064606
    Cl(f) = 0.196576
    Cl(r) = -0.13197

Time = 37

smoothSolver:  Solving for Ux, Initial residual = 0.00117556, Final residual = 0.000107887, No Iterations 8
smoothSolver:  Solving for Uy, Initial residual = 0.0253048, Final residual = 0.00241909, No Iterations 7
smoothSolver:  Solving for Uz, Initial residual = 0.0224284, Final residual = 0.0021161, No Iterations 7
GAMG:  Solving for p, Initial residual = 0.00965019, Final residual = 4.80604e-05, No Iterations 4
time step continuity errors : sum local = 9.28231e-05, global = 7.14877e-07, cumulative = 4.56973e-05
smoothSolver:  Solving for omega, Initial residual = 0.000203713, Final residual = 1.80764e-05, No Iterations 3
smoothSolver:  Solving for k, Initial residual = 0.00245746, Final residual = 0.000125777, No Iterations 4
ExecutionTime = 2.3 s  ClockTime = 2 s

forceCoeffs forceCoeffs1 write:
    Cm    = 0.164432
    Cd    = 0.413303
    Cl    = 0.0648482
    Cl(f) = 0.196856
    Cl(r) = -0.132008

Time = 38

smoothSolver:  Solving for Ux, Initial residual = 0.0011252, Final residual = 0.000102055, No Iterations 8
smoothSolver:  Solving for Uy, Initial residual = 0.024455, Final residual = 0.00233568, No Iterations 7
smoothSolver:  Solving for Uz, Initial residual = 0.021373, Final residual = 0.00202107, No Iterations 7
GAMG:  Solving for p, Initial residual = 0.00933368, Final residual = 4.99514e-05, No Iterations 4
time step continuity errors : sum local = 9.62172e-05, global = 1.05101e-06, cumulative = 4.67483e-05
smoothSolver:  Solving for omega, Initial residual = 0.000193817, Final residual = 1.71466e-05, No Iterations 3
smoothSolver:  Solving for k, Initial residual = 0.00238898, Final residual = 0.000122481, No Iterations 4
ExecutionTime = 2.35 s  ClockTime = 2 s

forceCoeffs forceCoeffs1 write:
    Cm    = 0.164575
    Cd    = 0.413387
    Cl    = 0.0648256
    Cl(f) = 0.196988
    Cl(r) = -0.132162

Time = 39

smoothSolver:  Solving for Ux, Initial residual = 0.00107588, Final residual = 9.71012e-05, No Iterations 8
smoothSolver:  Solving for Uy, Initial residual = 0.0235232, Final residual = 0.00225052, No Iterations 7
smoothSolver:  Solving for Uz, Initial residual = 0.020325, Final residual = 0.00193982, No Iterations 7
GAMG:  Solving for p, Initial residual = 0.00898547, Final residual = 5.12861e-05, No Iterations 4
time step continuity errors : sum local = 9.86045e-05, global = 1.46058e-06, cumulative = 4.82088e-05
smoothSolver:  Solving for omega, Initial residual = 0.000183716, Final residual = 1.62018e-05, No Iterations 3
smoothSolver:  Solving for k, Initial residual = 0.00230996, Final residual = 0.000119203, No Iterations 4
ExecutionTime = 2.42 s  ClockTime = 3 s

forceCoeffs forceCoeffs1 write:
    Cm    = 0.164751
    Cd    = 0.413466
    Cl    = 0.0643269
    Cl(f) = 0.196914
    Cl(r) = -0.132587

Time = 40

smoothSolver:  Solving for Ux, Initial residual = 0.00102838, Final residual = 9.31513e-05, No Iterations 8
smoothSolver:  Solving for Uy, Initial residual = 0.0225167, Final residual = 0.00215966, No Iterations 7
smoothSolver:  Solving for Uz, Initial residual = 0.0193819, Final residual = 0.00187483, No Iterations 7
GAMG:  Solving for p, Initial residual = 0.00863477, Final residual = 5.01741e-05, No Iterations 4
time step continuity errors : sum local = 9.63263e-05, global = 1.1165e-06, cumulative = 4.93253e-05
smoothSolver:  Solving for omega, Initial residual = 0.000174619, Final residual = 1.5318e-05, No Iterations 3
smoothSolver:  Solving for k, Initial residual = 0.0022304, Final residual = 0.000116002, No Iterations 4
ExecutionTime = 2.48 s  ClockTime = 3 s

forceCoeffs forceCoeffs1 write:
    Cm    = 0.164865
    Cd    = 0.41352
    Cl    = 0.0635284
    Cl(f) = 0.196629
    Cl(r) = -0.133101

Time = 41

smoothSolver:  Solving for Ux, Initial residual = 0.000981813, Final residual = 8.96806e-05, No Iterations 8
smoothSolver:  Solving for Uy, Initial residual = 0.0215328, Final residual = 0.00207387, No Iterations 7
smoothSolver:  Solving for Uz, Initial residual = 0.0185673, Final residual = 0.00180888, No Iterations 7
GAMG:  Solving for p, Initial residual = 0.00831204, Final residual = 4.82027e-05, No Iterations 4
time step continuity errors : sum local = 9.2448e-05, global = 7.81568e-07, cumulative = 5.01069e-05
smoothSolver:  Solving for omega, Initial residual = 0.000166606, Final residual = 1.45555e-05, No Iterations 3
smoothSolver:  Solving for k, Initial residual = 0.00215319, Final residual = 0.000112784, No Iterations 4
ExecutionTime = 2.53 s  ClockTime = 3 s

forceCoeffs forceCoeffs1 write:
    Cm    = 0.164912
    Cd    = 0.413678
    Cl    = 0.0626402
    Cl(f) = 0.196232
    Cl(r) = -0.133592

Time = 42

smoothSolver:  Solving for Ux, Initial residual = 0.000937762, Final residual = 8.71563e-05, No Iterations 8
smoothSolver:  Solving for Uy, Initial residual = 0.0206127, Final residual = 0.00199647, No Iterations 7
smoothSolver:  Solving for Uz, Initial residual = 0.0178168, Final residual = 0.00173745, No Iterations 7
GAMG:  Solving for p, Initial residual = 0.00802128, Final residual = 4.57961e-05, No Iterations 4
time step continuity errors : sum local = 8.77663e-05, global = 4.41077e-07, cumulative = 5.0548e-05
smoothSolver:  Solving for omega, Initial residual = 0.000159424, Final residual = 1.39147e-05, No Iterations 3
smoothSolver:  Solving for k, Initial residual = 0.00209629, Final residual = 0.000109998, No Iterations 4
ExecutionTime = 2.58 s  ClockTime = 3 s

forceCoeffs forceCoeffs1 write:
    Cm    = 0.164805
    Cd    = 0.413865
    Cl    = 0.0619144
    Cl(f) = 0.195762
    Cl(r) = -0.133847

Time = 43

smoothSolver:  Solving for Ux, Initial residual = 0.000900465, Final residual = 8.5576e-05, No Iterations 8
smoothSolver:  Solving for Uy, Initial residual = 0.0197865, Final residual = 0.00194196, No Iterations 7
smoothSolver:  Solving for Uz, Initial residual = 0.0171755, Final residual = 0.00167061, No Iterations 7
GAMG:  Solving for p, Initial residual = 0.00775703, Final residual = 4.38173e-05, No Iterations 4
time step continuity errors : sum local = 8.39249e-05, global = 5.76435e-07, cumulative = 5.11244e-05
smoothSolver:  Solving for omega, Initial residual = 0.000153316, Final residual = 1.33828e-05, No Iterations 3
smoothSolver:  Solving for k, Initial residual = 0.00204476, Final residual = 0.000107247, No Iterations 4
ExecutionTime = 2.63 s  ClockTime = 3 s

forceCoeffs forceCoeffs1 write:
    Cm    = 0.164614
    Cd    = 0.414124
    Cl    = 0.061593
    Cl(f) = 0.195411
    Cl(r) = -0.133818

Time = 44

smoothSolver:  Solving for Ux, Initial residual = 0.000869164, Final residual = 8.40303e-05, No Iterations 8
smoothSolver:  Solving for Uy, Initial residual = 0.0190634, Final residual = 0.00190199, No Iterations 7
smoothSolver:  Solving for Uz, Initial residual = 0.0165069, Final residual = 0.0016175, No Iterations 7
GAMG:  Solving for p, Initial residual = 0.00751459, Final residual = 4.23418e-05, No Iterations 4
time step continuity errors : sum local = 8.1058e-05, global = 7.84662e-07, cumulative = 5.19091e-05
smoothSolver:  Solving for omega, Initial residual = 0.000148064, Final residual = 1.29363e-05, No Iterations 3
smoothSolver:  Solving for k, Initial residual = 0.00199866, Final residual = 0.000104423, No Iterations 4
ExecutionTime = 2.68 s  ClockTime = 3 s

forceCoeffs forceCoeffs1 write:
    Cm    = 0.164335
    Cd    = 0.414408
    Cl    = 0.061702
    Cl(f) = 0.195186
    Cl(r) = -0.133484

Time = 45

smoothSolver:  Solving for Ux, Initial residual = 0.000843095, Final residual = 8.23889e-05, No Iterations 8
smoothSolver:  Solving for Uy, Initial residual = 0.0184024, Final residual = 0.0014236, No Iterations 8
smoothSolver:  Solving for Uz, Initial residual = 0.0158291, Final residual = 0.00156625, No Iterations 7
GAMG:  Solving for p, Initial residual = 0.00727561, Final residual = 4.11061e-05, No Iterations 4
time step continuity errors : sum local = 7.86686e-05, global = 7.47129e-07, cumulative = 5.26562e-05
smoothSolver:  Solving for omega, Initial residual = 0.000143132, Final residual = 1.25474e-05, No Iterations 3
smoothSolver:  Solving for k, Initial residual = 0.00194759, Final residual = 0.00010195, No Iterations 4
ExecutionTime = 2.73 s  ClockTime = 3 s

forceCoeffs forceCoeffs1 write:
    Cm    = 0.164043
    Cd    = 0.414758
    Cl    = 0.0621573
    Cl(f) = 0.195122
    Cl(r) = -0.132964

Time = 46

smoothSolver:  Solving for Ux, Initial residual = 0.000819163, Final residual = 8.09784e-05, No Iterations 8
smoothSolver:  Solving for Uy, Initial residual = 0.0177218, Final residual = 0.00138714, No Iterations 8
smoothSolver:  Solving for Uz, Initial residual = 0.0153107, Final residual = 0.001522, No Iterations 7
GAMG:  Solving for p, Initial residual = 0.00701238, Final residual = 3.98489e-05, No Iterations 4
time step continuity errors : sum local = 7.62496e-05, global = 1.23366e-06, cumulative = 5.38899e-05
smoothSolver:  Solving for omega, Initial residual = 0.000139012, Final residual = 1.22214e-05, No Iterations 3
smoothSolver:  Solving for k, Initial residual = 0.00188715, Final residual = 9.93463e-05, No Iterations 4
ExecutionTime = 2.78 s  ClockTime = 3 s

forceCoeffs forceCoeffs1 write:
    Cm    = 0.163643
    Cd    = 0.414959
    Cl    = 0.0628042
    Cl(f) = 0.195045
    Cl(r) = -0.13224

Time = 47

smoothSolver:  Solving for Ux, Initial residual = 0.000797843, Final residual = 7.91954e-05, No Iterations 8
smoothSolver:  Solving for Uy, Initial residual = 0.0170459, Final residual = 0.00133471, No Iterations 8
smoothSolver:  Solving for Uz, Initial residual = 0.0147888, Final residual = 0.00112576, No Iterations 8
GAMG:  Solving for p, Initial residual = 0.00676698, Final residual = 3.88591e-05, No Iterations 4
time step continuity errors : sum local = 7.43566e-05, global = 1.35494e-06, cumulative = 5.52448e-05
smoothSolver:  Solving for omega, Initial residual = 0.000134856, Final residual = 1.1868e-05, No Iterations 3
smoothSolver:  Solving for k, Initial residual = 0.00181803, Final residual = 9.66865e-05, No Iterations 4
ExecutionTime = 2.83 s  ClockTime = 3 s

forceCoeffs forceCoeffs1 write:
    Cm    = 0.163311
    Cd    = 0.41516
    Cl    = 0.0636473
    Cl(f) = 0.195135
    Cl(r) = -0.131487

Time = 48

smoothSolver:  Solving for Ux, Initial residual = 0.000778483, Final residual = 7.70472e-05, No Iterations 8
smoothSolver:  Solving for Uy, Initial residual = 0.0163893, Final residual = 0.00126976, No Iterations 8
smoothSolver:  Solving for Uz, Initial residual = 0.0142333, Final residual = 0.00141985, No Iterations 7
GAMG:  Solving for p, Initial residual = 0.00649121, Final residual = 3.61235e-05, No Iterations 4
time step continuity errors : sum local = 6.91064e-05, global = 1.15066e-06, cumulative = 5.63955e-05
smoothSolver:  Solving for omega, Initial residual = 0.000130622, Final residual = 1.15008e-05, No Iterations 3
smoothSolver:  Solving for k, Initial residual = 0.00175501, Final residual = 9.40427e-05, No Iterations 4
ExecutionTime = 2.87 s  ClockTime = 3 s

forceCoeffs forceCoeffs1 write:
    Cm    = 0.16299
    Cd    = 0.415269
    Cl    = 0.0645408
    Cl(f) = 0.195261
    Cl(r) = -0.13072

Time = 49

smoothSolver:  Solving for Ux, Initial residual = 0.000753908, Final residual = 7.45506e-05, No Iterations 8
smoothSolver:  Solving for Uy, Initial residual = 0.0156859, Final residual = 0.00119379, No Iterations 8
smoothSolver:  Solving for Uz, Initial residual = 0.0137144, Final residual = 0.00136694, No Iterations 7
GAMG:  Solving for p, Initial residual = 0.00625994, Final residual = 3.40503e-05, No Iterations 4
time step continuity errors : sum local = 6.51221e-05, global = 8.34347e-07, cumulative = 5.72298e-05
smoothSolver:  Solving for omega, Initial residual = 0.000126862, Final residual = 1.11656e-05, No Iterations 3
smoothSolver:  Solving for k, Initial residual = 0.0016951, Final residual = 9.12452e-05, No Iterations 4
ExecutionTime = 2.92 s  ClockTime = 3 s

forceCoeffs forceCoeffs1 write:
    Cm    = 0.162764
    Cd    = 0.41542
    Cl    = 0.0654173
    Cl(f) = 0.195473
    Cl(r) = -0.130056

Time = 50

smoothSolver:  Solving for Ux, Initial residual = 0.000727244, Final residual = 7.12713e-05, No Iterations 8
smoothSolver:  Solving for Uy, Initial residual = 0.0150093, Final residual = 0.00147148, No Iterations 7
smoothSolver:  Solving for Uz, Initial residual = 0.0132157, Final residual = 0.00130472, No Iterations 7
GAMG:  Solving for p, Initial residual = 0.00604679, Final residual = 3.18535e-05, No Iterations 4
time step continuity errors : sum local = 6.08812e-05, global = 2.23634e-07, cumulative = 5.74534e-05
smoothSolver:  Solving for omega, Initial residual = 0.000122356, Final residual = 1.07862e-05, No Iterations 3
smoothSolver:  Solving for k, Initial residual = 0.0016355, Final residual = 8.8351e-05, No Iterations 4
ExecutionTime = 2.98 s  ClockTime = 3 s

forceCoeffs forceCoeffs1 write:
    Cm    = 0.162542
    Cd    = 0.415529
    Cl    = 0.0662178
    Cl(f) = 0.195651
    Cl(r) = -0.129433

Time = 51

smoothSolver:  Solving for Ux, Initial residual = 0.000698942, Final residual = 6.7108e-05, No Iterations 8
smoothSolver:  Solving for Uy, Initial residual = 0.0143623, Final residual = 0.00138186, No Iterations 7
smoothSolver:  Solving for Uz, Initial residual = 0.0126882, Final residual = 0.00123467, No Iterations 7
GAMG:  Solving for p, Initial residual = 0.0058629, Final residual = 2.98669e-05, No Iterations 4
time step continuity errors : sum local = 5.7031e-05, global = 6.53388e-08, cumulative = 5.75188e-05
smoothSolver:  Solving for omega, Initial residual = 0.000117883, Final residual = 1.04101e-05, No Iterations 3
smoothSolver:  Solving for k, Initial residual = 0.00157443, Final residual = 8.53096e-05, No Iterations 4
ExecutionTime = 3.04 s  ClockTime = 3 s

forceCoeffs forceCoeffs1 write:
    Cm    = 0.162344
    Cd    = 0.415643
    Cl    = 0.0669851
    Cl(f) = 0.195836
    Cl(r) = -0.128851

Time = 52

smoothSolver:  Solving for Ux, Initial residual = 0.000668937, Final residual = 6.25325e-05, No Iterations 8
smoothSolver:  Solving for Uy, Initial residual = 0.0137712, Final residual = 0.00129587, No Iterations 7
smoothSolver:  Solving for Uz, Initial residual = 0.0122259, Final residual = 0.00116977, No Iterations 7
GAMG:  Solving for p, Initial residual = 0.00570251, Final residual = 2.81505e-05, No Iterations 4
time step continuity errors : sum local = 5.36948e-05, global = -2.9481e-07, cumulative = 5.7224e-05
smoothSolver:  Solving for omega, Initial residual = 0.000113664, Final residual = 9.9974e-06, No Iterations 3
smoothSolver:  Solving for k, Initial residual = 0.00150962, Final residual = 8.21121e-05, No Iterations 4
ExecutionTime = 3.09 s  ClockTime = 3 s

forceCoeffs forceCoeffs1 write:
    Cm    = 0.162063
    Cd    = 0.415618
    Cl    = 0.0676209
    Cl(f) = 0.195873
    Cl(r) = -0.128252

Time = 53

smoothSolver:  Solving for Ux, Initial residual = 0.000639749, Final residual = 5.796e-05, No Iterations 8
smoothSolver:  Solving for Uy, Initial residual = 0.0132699, Final residual = 0.00121942, No Iterations 7
smoothSolver:  Solving for Uz, Initial residual = 0.0118092, Final residual = 0.00111624, No Iterations 7
GAMG:  Solving for p, Initial residual = 0.0055542, Final residual = 2.67134e-05, No Iterations 4
time step continuity errors : sum local = 5.09103e-05, global = -6.86005e-07, cumulative = 5.6538e-05
smoothSolver:  Solving for omega, Initial residual = 0.000109537, Final residual = 9.61132e-06, No Iterations 3
smoothSolver:  Solving for k, Initial residual = 0.00144601, Final residual = 7.90292e-05, No Iterations 4
ExecutionTime = 3.13 s  ClockTime = 3 s

forceCoeffs forceCoeffs1 write:
    Cm    = 0.161669
    Cd    = 0.415311
    Cl    = 0.0681538
    Cl(f) = 0.195746
    Cl(r) = -0.127592

Time = 54

smoothSolver:  Solving for Ux, Initial residual = 0.000611905, Final residual = 5.34301e-05, No Iterations 8
smoothSolver:  Solving for Uy, Initial residual = 0.0128791, Final residual = 0.00115779, No Iterations 7
smoothSolver:  Solving for Uz, Initial residual = 0.0114778, Final residual = 0.00107262, No Iterations 7
GAMG:  Solving for p, Initial residual = 0.00542488, Final residual = 2.56609e-05, No Iterations 4
time step continuity errors : sum local = 4.88781e-05, global = -7.29935e-07, cumulative = 5.5808e-05
smoothSolver:  Solving for omega, Initial residual = 0.000106103, Final residual = 9.25792e-06, No Iterations 3
smoothSolver:  Solving for k, Initial residual = 0.00138887, Final residual = 7.61052e-05, No Iterations 4
ExecutionTime = 3.18 s  ClockTime = 3 s

forceCoeffs forceCoeffs1 write:
    Cm    = 0.161248
    Cd    = 0.414822
    Cl    = 0.0685971
    Cl(f) = 0.195547
    Cl(r) = -0.12695

Time = 55

smoothSolver:  Solving for Ux, Initial residual = 0.000585116, Final residual = 4.91623e-05, No Iterations 8
smoothSolver:  Solving for Uy, Initial residual = 0.0125765, Final residual = 0.00111034, No Iterations 7
smoothSolver:  Solving for Uz, Initial residual = 0.0112272, Final residual = 0.00103755, No Iterations 7
GAMG:  Solving for p, Initial residual = 0.00531162, Final residual = 2.47383e-05, No Iterations 4
time step continuity errors : sum local = 4.71128e-05, global = -5.42286e-07, cumulative = 5.52657e-05
smoothSolver:  Solving for omega, Initial residual = 0.000102718, Final residual = 8.90712e-06, No Iterations 3
smoothSolver:  Solving for k, Initial residual = 0.00133829, Final residual = 7.32348e-05, No Iterations 4
ExecutionTime = 3.23 s  ClockTime = 3 s

forceCoeffs forceCoeffs1 write:
    Cm    = 0.160795
    Cd    = 0.414151
    Cl    = 0.0689621
    Cl(f) = 0.195276
    Cl(r) = -0.126314

Time = 56

smoothSolver:  Solving for Ux, Initial residual = 0.000559719, Final residual = 4.54417e-05, No Iterations 8
smoothSolver:  Solving for Uy, Initial residual = 0.0123476, Final residual = 0.00107702, No Iterations 7
smoothSolver:  Solving for Uz, Initial residual = 0.0110142, Final residual = 0.00101025, No Iterations 7
GAMG:  Solving for p, Initial residual = 0.0052134, Final residual = 2.40706e-05, No Iterations 4
time step continuity errors : sum local = 4.5846e-05, global = -2.30679e-07, cumulative = 5.50351e-05
smoothSolver:  Solving for omega, Initial residual = 9.97315e-05, Final residual = 8.59363e-06, No Iterations 3
smoothSolver:  Solving for k, Initial residual = 0.00129618, Final residual = 7.05623e-05, No Iterations 4
ExecutionTime = 3.28 s  ClockTime = 3 s

forceCoeffs forceCoeffs1 write:
    Cm    = 0.160414
    Cd    = 0.413568
    Cl    = 0.0692769
    Cl(f) = 0.195053
    Cl(r) = -0.125776

Time = 57

smoothSolver:  Solving for Ux, Initial residual = 0.000536283, Final residual = 4.24002e-05, No Iterations 8
smoothSolver:  Solving for Uy, Initial residual = 0.0121745, Final residual = 0.00105203, No Iterations 7
smoothSolver:  Solving for Uz, Initial residual = 0.0108418, Final residual = 0.000981599, No Iterations 7
GAMG:  Solving for p, Initial residual = 0.00513718, Final residual = 2.36073e-05, No Iterations 4
time step continuity errors : sum local = 4.49779e-05, global = 7.75239e-08, cumulative = 5.51126e-05
smoothSolver:  Solving for omega, Initial residual = 9.68125e-05, Final residual = 8.29446e-06, No Iterations 3
smoothSolver:  Solving for k, Initial residual = 0.00125681, Final residual = 6.80307e-05, No Iterations 4
ExecutionTime = 3.33 s  ClockTime = 3 s

forceCoeffs forceCoeffs1 write:
    Cm    = 0.160138
    Cd    = 0.413178
    Cl    = 0.069592
    Cl(f) = 0.194934
    Cl(r) = -0.125342

Time = 58

smoothSolver:  Solving for Ux, Initial residual = 0.000515932, Final residual = 4.04095e-05, No Iterations 8
smoothSolver:  Solving for Uy, Initial residual = 0.0120339, Final residual = 0.00103841, No Iterations 7
smoothSolver:  Solving for Uz, Initial residual = 0.0106773, Final residual = 0.000951907, No Iterations 7
GAMG:  Solving for p, Initial residual = 0.00506545, Final residual = 2.33702e-05, No Iterations 4
time step continuity errors : sum local = 4.45439e-05, global = -7.99892e-09, cumulative = 5.51046e-05
smoothSolver:  Solving for omega, Initial residual = 9.4625e-05, Final residual = 8.02711e-06, No Iterations 3
smoothSolver:  Solving for k, Initial residual = 0.00122435, Final residual = 6.57902e-05, No Iterations 4
ExecutionTime = 3.38 s  ClockTime = 4 s

forceCoeffs forceCoeffs1 write:
    Cm    = 0.159916
    Cd    = 0.413016
    Cl    = 0.0698774
    Cl(f) = 0.194855
    Cl(r) = -0.124978

Time = 59

smoothSolver:  Solving for Ux, Initial residual = 0.000500022, Final residual = 3.9084e-05, No Iterations 8
smoothSolver:  Solving for Uy, Initial residual = 0.01194, Final residual = 0.00103071, No Iterations 7
smoothSolver:  Solving for Uz, Initial residual = 0.0105328, Final residual = 0.000917348, No Iterations 7
GAMG:  Solving for p, Initial residual = 0.00499664, Final residual = 2.36297e-05, No Iterations 4
time step continuity errors : sum local = 4.50583e-05, global = 1.22484e-07, cumulative = 5.52271e-05
smoothSolver:  Solving for omega, Initial residual = 9.28396e-05, Final residual = 7.83116e-06, No Iterations 3
smoothSolver:  Solving for k, Initial residual = 0.00119921, Final residual = 6.38089e-05, No Iterations 4
ExecutionTime = 3.42 s  ClockTime = 4 s

forceCoeffs forceCoeffs1 write:
    Cm    = 0.159754
    Cd    = 0.413054
    Cl    = 0.0701494
    Cl(f) = 0.194828
    Cl(r) = -0.124679

Time = 60

smoothSolver:  Solving for Ux, Initial residual = 0.000487631, Final residual = 3.85775e-05, No Iterations 8
smoothSolver:  Solving for Uy, Initial residual = 0.0118505, Final residual = 0.00102842, No Iterations 7
smoothSolver:  Solving for Uz, Initial residual = 0.0103932, Final residual = 0.000885307, No Iterations 7
GAMG:  Solving for p, Initial residual = 0.00493572, Final residual = 2.40139e-05, No Iterations 4
time step continuity errors : sum local = 4.58053e-05, global = 2.66194e-07, cumulative = 5.54933e-05
smoothSolver:  Solving for omega, Initial residual = 9.11774e-05, Final residual = 7.61726e-06, No Iterations 3
smoothSolver:  Solving for k, Initial residual = 0.00118043, Final residual = 6.18942e-05, No Iterations 4
ExecutionTime = 3.47 s  ClockTime = 4 s

forceCoeffs forceCoeffs1 write:
    Cm    = 0.159609
    Cd    = 0.413279
    Cl    = 0.0703655
    Cl(f) = 0.194791
    Cl(r) = -0.124426

Time = 61

smoothSolver:  Solving for Ux, Initial residual = 0.000479216, Final residual = 3.86596e-05, No Iterations 8
smoothSolver:  Solving for Uy, Initial residual = 0.0117935, Final residual = 0.00103272, No Iterations 7
smoothSolver:  Solving for Uz, Initial residual = 0.0102387, Final residual = 0.000861262, No Iterations 7
GAMG:  Solving for p, Initial residual = 0.00488422, Final residual = 2.45905e-05, No Iterations 4
time step continuity errors : sum local = 4.69103e-05, global = 2.50854e-07, cumulative = 5.57441e-05
smoothSolver:  Solving for omega, Initial residual = 8.92544e-05, Final residual = 7.41002e-06, No Iterations 3
smoothSolver:  Solving for k, Initial residual = 0.00116918, Final residual = 6.01673e-05, No Iterations 4
ExecutionTime = 3.52 s  ClockTime = 4 s

forceCoeffs forceCoeffs1 write:
    Cm    = 0.159522
    Cd    = 0.41366
    Cl    = 0.0704892
    Cl(f) = 0.194767
    Cl(r) = -0.124278

Time = 62

smoothSolver:  Solving for Ux, Initial residual = 0.000475796, Final residual = 3.92611e-05, No Iterations 8
smoothSolver:  Solving for Uy, Initial residual = 0.011741, Final residual = 0.0010413, No Iterations 7
smoothSolver:  Solving for Uz, Initial residual = 0.010069, Final residual = 0.000853453, No Iterations 7
GAMG:  Solving for p, Initial residual = 0.00482903, Final residual = 2.4999e-05, No Iterations 4
time step continuity errors : sum local = 4.76832e-05, global = 2.47442e-07, cumulative = 5.59916e-05
smoothSolver:  Solving for omega, Initial residual = 8.79651e-05, Final residual = 7.24673e-06, No Iterations 3
smoothSolver:  Solving for k, Initial residual = 0.00116055, Final residual = 5.8609e-05, No Iterations 4
ExecutionTime = 3.57 s  ClockTime = 4 s

forceCoeffs forceCoeffs1 write:
    Cm    = 0.159436
    Cd    = 0.414112
    Cl    = 0.0705269
    Cl(f) = 0.194699
    Cl(r) = -0.124172

Time = 63

smoothSolver:  Solving for Ux, Initial residual = 0.00047512, Final residual = 4.02854e-05, No Iterations 8
smoothSolver:  Solving for Uy, Initial residual = 0.0116645, Final residual = 0.00105074, No Iterations 7
smoothSolver:  Solving for Uz, Initial residual = 0.00992096, Final residual = 0.000853318, No Iterations 7
GAMG:  Solving for p, Initial residual = 0.00476984, Final residual = 2.527e-05, No Iterations 4
time step continuity errors : sum local = 4.81965e-05, global = 2.60844e-07, cumulative = 5.62524e-05
smoothSolver:  Solving for omega, Initial residual = 8.64135e-05, Final residual = 7.09931e-06, No Iterations 3
smoothSolver:  Solving for k, Initial residual = 0.00114905, Final residual = 5.70276e-05, No Iterations 4
ExecutionTime = 3.62 s  ClockTime = 4 s

forceCoeffs forceCoeffs1 write:
    Cm    = 0.159335
    Cd    = 0.414527
    Cl    = 0.0704445
    Cl(f) = 0.194557
    Cl(r) = -0.124113

Time = 64

smoothSolver:  Solving for Ux, Initial residual = 0.000474429, Final residual = 4.12468e-05, No Iterations 8
smoothSolver:  Solving for Uy, Initial residual = 0.0115353, Final residual = 0.00105502, No Iterations 7
smoothSolver:  Solving for Uz, Initial residual = 0.00978126, Final residual = 0.000852981, No Iterations 7
GAMG:  Solving for p, Initial residual = 0.00470046, Final residual = 2.50946e-05, No Iterations 4
time step continuity errors : sum local = 4.78554e-05, global = 2.66267e-07, cumulative = 5.65187e-05
smoothSolver:  Solving for omega, Initial residual = 8.46654e-05, Final residual = 6.93419e-06, No Iterations 3
smoothSolver:  Solving for k, Initial residual = 0.00113282, Final residual = 5.5363e-05, No Iterations 4
ExecutionTime = 3.67 s  ClockTime = 4 s

forceCoeffs forceCoeffs1 write:
    Cm    = 0.15924
    Cd    = 0.414943
    Cl    = 0.0702785
    Cl(f) = 0.194379
    Cl(r) = -0.124101

Time = 65

smoothSolver:  Solving for Ux, Initial residual = 0.000473129, Final residual = 4.20033e-05, No Iterations 8
smoothSolver:  Solving for Uy, Initial residual = 0.0113502, Final residual = 0.0010537, No Iterations 7
smoothSolver:  Solving for Uz, Initial residual = 0.00963538, Final residual = 0.000850907, No Iterations 7
GAMG:  Solving for p, Initial residual = 0.0046285, Final residual = 2.47032e-05, No Iterations 4
time step continuity errors : sum local = 4.71011e-05, global = 1.17359e-07, cumulative = 5.6636e-05
smoothSolver:  Solving for omega, Initial residual = 8.32023e-05, Final residual = 6.76689e-06, No Iterations 3
smoothSolver:  Solving for k, Initial residual = 0.00111149, Final residual = 5.3495e-05, No Iterations 4
ExecutionTime = 3.71 s  ClockTime = 4 s

forceCoeffs forceCoeffs1 write:
    Cm    = 0.159159
    Cd    = 0.415365
    Cl    = 0.0699848
    Cl(f) = 0.194151
    Cl(r) = -0.124167

Time = 66

smoothSolver:  Solving for Ux, Initial residual = 0.00047028, Final residual = 4.24446e-05, No Iterations 8
smoothSolver:  Solving for Uy, Initial residual = 0.0111131, Final residual = 0.00104273, No Iterations 7
smoothSolver:  Solving for Uz, Initial residual = 0.00945176, Final residual = 0.000847502, No Iterations 7
GAMG:  Solving for p, Initial residual = 0.00455276, Final residual = 2.42093e-05, No Iterations 4
time step continuity errors : sum local = 4.61516e-05, global = -2.30615e-08, cumulative = 5.6613e-05
smoothSolver:  Solving for omega, Initial residual = 8.18771e-05, Final residual = 6.56774e-06, No Iterations 3
smoothSolver:  Solving for k, Initial residual = 0.00108224, Final residual = 5.14448e-05, No Iterations 4
ExecutionTime = 3.76 s  ClockTime = 4 s

forceCoeffs forceCoeffs1 write:
    Cm    = 0.159058
    Cd    = 0.415749
    Cl    = 0.0696717
    Cl(f) = 0.193894
    Cl(r) = -0.124222

Time = 67

smoothSolver:  Solving for Ux, Initial residual = 0.000465901, Final residual = 4.26182e-05, No Iterations 8
smoothSolver:  Solving for Uy, Initial residual = 0.0108154, Final residual = 0.00102224, No Iterations 7
smoothSolver:  Solving for Uz, Initial residual = 0.00922771, Final residual = 0.000837217, No Iterations 7
GAMG:  Solving for p, Initial residual = 0.00445077, Final residual = 2.35463e-05, No Iterations 4
time step continuity errors : sum local = 4.48781e-05, global = -5.3952e-08, cumulative = 5.6559e-05
smoothSolver:  Solving for omega, Initial residual = 8.0619e-05, Final residual = 6.38875e-06, No Iterations 3
smoothSolver:  Solving for k, Initial residual = 0.00105126, Final residual = 4.95033e-05, No Iterations 4
ExecutionTime = 3.81 s  ClockTime = 4 s

forceCoeffs forceCoeffs1 write:
    Cm    = 0.158931
    Cd    = 0.416018
    Cl    = 0.0693282
    Cl(f) = 0.193595
    Cl(r) = -0.124267

Time = 68

smoothSolver:  Solving for Ux, Initial residual = 0.000457578, Final residual = 4.23736e-05, No Iterations 8
smoothSolver:  Solving for Uy, Initial residual = 0.0104854, Final residual = 0.000992811, No Iterations 7
smoothSolver:  Solving for Uz, Initial residual = 0.0089707, Final residual = 0.000820551, No Iterations 7
GAMG:  Solving for p, Initial residual = 0.00434597, Final residual = 2.26291e-05, No Iterations 4
time step continuity errors : sum local = 4.3121e-05, global = 2.31372e-08, cumulative = 5.65822e-05
smoothSolver:  Solving for omega, Initial residual = 7.92887e-05, Final residual = 6.23959e-06, No Iterations 3
smoothSolver:  Solving for k, Initial residual = 0.00101701, Final residual = 4.77232e-05, No Iterations 4
ExecutionTime = 3.86 s  ClockTime = 4 s

forceCoeffs forceCoeffs1 write:
    Cm    = 0.15882
    Cd    = 0.416213
    Cl    = 0.0690855
    Cl(f) = 0.193363
    Cl(r) = -0.124277

Time = 69

smoothSolver:  Solving for Ux, Initial residual = 0.000446971, Final residual = 4.1693e-05, No Iterations 8
smoothSolver:  Solving for Uy, Initial residual = 0.010137, Final residual = 0.000959363, No Iterations 7
smoothSolver:  Solving for Uz, Initial residual = 0.00868275, Final residual = 0.000797254, No Iterations 7
GAMG:  Solving for p, Initial residual = 0.00422946, Final residual = 2.15608e-05, No Iterations 4
time step continuity errors : sum local = 4.10824e-05, global = 8.96311e-10, cumulative = 5.65831e-05
smoothSolver:  Solving for omega, Initial residual = 7.79727e-05, Final residual = 6.11365e-06, No Iterations 3
smoothSolver:  Solving for k, Initial residual = 0.000981011, Final residual = 4.6129e-05, No Iterations 4
ExecutionTime = 3.91 s  ClockTime = 4 s

forceCoeffs forceCoeffs1 write:
    Cm    = 0.158681
    Cd    = 0.416253
    Cl    = 0.0687827
    Cl(f) = 0.193072
    Cl(r) = -0.124289

Time = 70

smoothSolver:  Solving for Ux, Initial residual = 0.000434578, Final residual = 4.04565e-05, No Iterations 8
smoothSolver:  Solving for Uy, Initial residual = 0.00978043, Final residual = 0.000918767, No Iterations 7
smoothSolver:  Solving for Uz, Initial residual = 0.00837112, Final residual = 0.000767313, No Iterations 7
GAMG:  Solving for p, Initial residual = 0.00411809, Final residual = 2.02953e-05, No Iterations 4
time step continuity errors : sum local = 3.86802e-05, global = -8.92864e-09, cumulative = 5.65741e-05
smoothSolver:  Solving for omega, Initial residual = 7.60744e-05, Final residual = 5.99464e-06, No Iterations 3
smoothSolver:  Solving for k, Initial residual = 0.000945479, Final residual = 4.46321e-05, No Iterations 4
ExecutionTime = 3.96 s  ClockTime = 4 s

forceCoeffs forceCoeffs1 write:
    Cm    = 0.158556
    Cd    = 0.416196
    Cl    = 0.0684695
    Cl(f) = 0.19279
    Cl(r) = -0.124321

Time = 71

smoothSolver:  Solving for Ux, Initial residual = 0.000419954, Final residual = 3.87703e-05, No Iterations 8
smoothSolver:  Solving for Uy, Initial residual = 0.00941005, Final residual = 0.000874817, No Iterations 7
smoothSolver:  Solving for Uz, Initial residual = 0.00805347, Final residual = 0.000733786, No Iterations 7
GAMG:  Solving for p, Initial residual = 0.004012, Final residual = 1.93702e-05, No Iterations 4
time step continuity errors : sum local = 3.69408e-05, global = 3.72397e-08, cumulative = 5.66114e-05
smoothSolver:  Solving for omega, Initial residual = 7.37617e-05, Final residual = 5.85712e-06, No Iterations 3
smoothSolver:  Solving for k, Initial residual = 0.00090934, Final residual = 4.31852e-05, No Iterations 4
ExecutionTime = 4.01 s  ClockTime = 4 s

forceCoeffs forceCoeffs1 write:
    Cm    = 0.158432
    Cd    = 0.416035
    Cl    = 0.0680749
    Cl(f) = 0.19247
    Cl(r) = -0.124395

Time = 72

smoothSolver:  Solving for Ux, Initial residual = 0.000403907, Final residual = 3.6732e-05, No Iterations 8
smoothSolver:  Solving for Uy, Initial residual = 0.00906797, Final residual = 0.000825838, No Iterations 7
smoothSolver:  Solving for Uz, Initial residual = 0.0077421, Final residual = 0.000697852, No Iterations 7
GAMG:  Solving for p, Initial residual = 0.00390587, Final residual = 1.87103e-05, No Iterations 4
time step continuity errors : sum local = 3.5712e-05, global = 7.59077e-08, cumulative = 5.66873e-05
smoothSolver:  Solving for omega, Initial residual = 7.14571e-05, Final residual = 5.66574e-06, No Iterations 3
smoothSolver:  Solving for k, Initial residual = 0.000874489, Final residual = 4.17418e-05, No Iterations 4
ExecutionTime = 4.06 s  ClockTime = 4 s

forceCoeffs forceCoeffs1 write:
    Cm    = 0.158371
    Cd    = 0.415903
    Cl    = 0.0676998
    Cl(f) = 0.192221
    Cl(r) = -0.124521

Time = 73

smoothSolver:  Solving for Ux, Initial residual = 0.000385288, Final residual = 3.4655e-05, No Iterations 8
smoothSolver:  Solving for Uy, Initial residual = 0.00871119, Final residual = 0.000777278, No Iterations 7
smoothSolver:  Solving for Uz, Initial residual = 0.0074369, Final residual = 0.000661637, No Iterations 7
GAMG:  Solving for p, Initial residual = 0.00380588, Final residual = 1.80845e-05, No Iterations 4
time step continuity errors : sum local = 3.45525e-05, global = 8.24897e-08, cumulative = 5.67698e-05
smoothSolver:  Solving for omega, Initial residual = 6.89051e-05, Final residual = 5.43216e-06, No Iterations 3
smoothSolver:  Solving for k, Initial residual = 0.000840355, Final residual = 4.03236e-05, No Iterations 4
ExecutionTime = 4.11 s  ClockTime = 4 s

forceCoeffs forceCoeffs1 write:
    Cm    = 0.158319
    Cd    = 0.41573
    Cl    = 0.0672969
    Cl(f) = 0.191968
    Cl(r) = -0.124671

Time = 74

smoothSolver:  Solving for Ux, Initial residual = 0.000367472, Final residual = 3.2599e-05, No Iterations 8
smoothSolver:  Solving for Uy, Initial residual = 0.008379, Final residual = 0.000733062, No Iterations 7
smoothSolver:  Solving for Uz, Initial residual = 0.00716224, Final residual = 0.000626175, No Iterations 7
GAMG:  Solving for p, Initial residual = 0.0037109, Final residual = 1.75348e-05, No Iterations 4
time step continuity errors : sum local = 3.3535e-05, global = 1.38531e-07, cumulative = 5.69083e-05
smoothSolver:  Solving for omega, Initial residual = 6.67378e-05, Final residual = 5.22535e-06, No Iterations 3
smoothSolver:  Solving for k, Initial residual = 0.000809404, Final residual = 3.89551e-05, No Iterations 4
ExecutionTime = 4.16 s  ClockTime = 4 s

forceCoeffs forceCoeffs1 write:
    Cm    = 0.158322
    Cd    = 0.415622
    Cl    = 0.067028
    Cl(f) = 0.191836
    Cl(r) = -0.124808

Time = 75

smoothSolver:  Solving for Ux, Initial residual = 0.000351347, Final residual = 3.07387e-05, No Iterations 8
smoothSolver:  Solving for Uy, Initial residual = 0.00807387, Final residual = 0.000696702, No Iterations 7
smoothSolver:  Solving for Uz, Initial residual = 0.00690935, Final residual = 0.000593958, No Iterations 7
GAMG:  Solving for p, Initial residual = 0.00362122, Final residual = 1.69957e-05, No Iterations 4
time step continuity errors : sum local = 3.25293e-05, global = 2.11699e-07, cumulative = 5.712e-05
smoothSolver:  Solving for omega, Initial residual = 6.43004e-05, Final residual = 4.98622e-06, No Iterations 3
smoothSolver:  Solving for k, Initial residual = 0.000781024, Final residual = 3.77165e-05, No Iterations 4
ExecutionTime = 4.21 s  ClockTime = 4 s

forceCoeffs forceCoeffs1 write:
    Cm    = 0.158336
    Cd    = 0.415517
    Cl    = 0.066747
    Cl(f) = 0.19171
    Cl(r) = -0.124963

Time = 76

smoothSolver:  Solving for Ux, Initial residual = 0.000336877, Final residual = 2.90189e-05, No Iterations 8
smoothSolver:  Solving for Uy, Initial residual = 0.00779169, Final residual = 0.000666651, No Iterations 7
smoothSolver:  Solving for Uz, Initial residual = 0.00670368, Final residual = 0.000568439, No Iterations 7
GAMG:  Solving for p, Initial residual = 0.00353693, Final residual = 1.634e-05, No Iterations 4
time step continuity errors : sum local = 3.12929e-05, global = 2.38984e-07, cumulative = 5.7359e-05
smoothSolver:  Solving for omega, Initial residual = 6.22551e-05, Final residual = 4.76912e-06, No Iterations 3
smoothSolver:  Solving for k, Initial residual = 0.000755883, Final residual = 3.65819e-05, No Iterations 4
ExecutionTime = 4.26 s  ClockTime = 4 s

forceCoeffs forceCoeffs1 write:
    Cm    = 0.158379
    Cd    = 0.415491
    Cl    = 0.0665311
    Cl(f) = 0.191645
    Cl(r) = -0.125114

Time = 77

smoothSolver:  Solving for Ux, Initial residual = 0.000325435, Final residual = 2.7385e-05, No Iterations 8
smoothSolver:  Solving for Uy, Initial residual = 0.0075907, Final residual = 0.000641584, No Iterations 7
smoothSolver:  Solving for Uz, Initial residual = 0.00652196, Final residual = 0.000549136, No Iterations 7
GAMG:  Solving for p, Initial residual = 0.0034386, Final residual = 1.5662e-05, No Iterations 4
time step continuity errors : sum local = 3.00089e-05, global = 2.17937e-07, cumulative = 5.75769e-05
smoothSolver:  Solving for omega, Initial residual = 6.05005e-05, Final residual = 4.57928e-06, No Iterations 3
smoothSolver:  Solving for k, Initial residual = 0.000734229, Final residual = 3.55869e-05, No Iterations 4
ExecutionTime = 4.31 s  ClockTime = 4 s

forceCoeffs forceCoeffs1 write:
    Cm    = 0.15836
    Cd    = 0.415408
    Cl    = 0.0662276
    Cl(f) = 0.191474
    Cl(r) = -0.125246

Time = 78

smoothSolver:  Solving for Ux, Initial residual = 0.000314395, Final residual = 2.57506e-05, No Iterations 8
smoothSolver:  Solving for Uy, Initial residual = 0.00739067, Final residual = 0.000616497, No Iterations 7
smoothSolver:  Solving for Uz, Initial residual = 0.00635856, Final residual = 0.000530307, No Iterations 7
GAMG:  Solving for p, Initial residual = 0.00334625, Final residual = 1.48359e-05, No Iterations 4
time step continuity errors : sum local = 2.84343e-05, global = 6.56398e-08, cumulative = 5.76426e-05
smoothSolver:  Solving for omega, Initial residual = 5.86149e-05, Final residual = 4.39632e-06, No Iterations 3
smoothSolver:  Solving for k, Initial residual = 0.000714158, Final residual = 3.47547e-05, No Iterations 4
ExecutionTime = 4.36 s  ClockTime = 4 s

forceCoeffs forceCoeffs1 write:
    Cm    = 0.158333
    Cd    = 0.415302
    Cl    = 0.0660397
    Cl(f) = 0.191352
    Cl(r) = -0.125313

Time = 79

smoothSolver:  Solving for Ux, Initial residual = 0.000302452, Final residual = 2.4202e-05, No Iterations 8
smoothSolver:  Solving for Uy, Initial residual = 0.00721148, Final residual = 0.000594711, No Iterations 7
smoothSolver:  Solving for Uz, Initial residual = 0.00621717, Final residual = 0.000511465, No Iterations 7
GAMG:  Solving for p, Initial residual = 0.00326915, Final residual = 1.41352e-05, No Iterations 4
time step continuity errors : sum local = 2.7099e-05, global = -7.8201e-08, cumulative = 5.75644e-05
smoothSolver:  Solving for omega, Initial residual = 5.67354e-05, Final residual = 4.23569e-06, No Iterations 3
smoothSolver:  Solving for k, Initial residual = 0.000695586, Final residual = 3.40553e-05, No Iterations 4
ExecutionTime = 4.43 s  ClockTime = 5 s

forceCoeffs forceCoeffs1 write:
    Cm    = 0.158269
    Cd    = 0.415133
    Cl    = 0.0658424
    Cl(f) = 0.19119
    Cl(r) = -0.125348

Time = 80

smoothSolver:  Solving for Ux, Initial residual = 0.000291285, Final residual = 2.28404e-05, No Iterations 8
smoothSolver:  Solving for Uy, Initial residual = 0.007051, Final residual = 0.000574339, No Iterations 7
smoothSolver:  Solving for Uz, Initial residual = 0.00607819, Final residual = 0.000491317, No Iterations 7
GAMG:  Solving for p, Initial residual = 0.00320461, Final residual = 1.36141e-05, No Iterations 4
time step continuity errors : sum local = 2.61055e-05, global = -1.19555e-07, cumulative = 5.74448e-05
smoothSolver:  Solving for omega, Initial residual = 5.51564e-05, Final residual = 4.09183e-06, No Iterations 3
smoothSolver:  Solving for k, Initial residual = 0.000679597, Final residual = 3.34713e-05, No Iterations 4
ExecutionTime = 4.49 s  ClockTime = 5 s

forceCoeffs forceCoeffs1 write:
    Cm    = 0.158214
    Cd    = 0.41499
    Cl    = 0.0657649
    Cl(f) = 0.191096
    Cl(r) = -0.125331

Time = 81

smoothSolver:  Solving for Ux, Initial residual = 0.000281351, Final residual = 2.1669e-05, No Iterations 8
smoothSolver:  Solving for Uy, Initial residual = 0.00691288, Final residual = 0.000553443, No Iterations 7
smoothSolver:  Solving for Uz, Initial residual = 0.00596048, Final residual = 0.000474058, No Iterations 7
GAMG:  Solving for p, Initial residual = 0.00314807, Final residual = 1.36911e-05, No Iterations 4
time step continuity errors : sum local = 2.62593e-05, global = -1.5e-07, cumulative = 5.72948e-05
smoothSolver:  Solving for omega, Initial residual = 5.35167e-05, Final residual = 3.96043e-06, No Iterations 3
smoothSolver:  Solving for k, Initial residual = 0.000665336, Final residual = 3.29509e-05, No Iterations 4
ExecutionTime = 4.53 s  ClockTime = 5 s

forceCoeffs forceCoeffs1 write:
    Cm    = 0.158147
    Cd    = 0.41486
    Cl    = 0.0655857
    Cl(f) = 0.19094
    Cl(r) = -0.125354

Time = 82

smoothSolver:  Solving for Ux, Initial residual = 0.000271471, Final residual = 2.06278e-05, No Iterations 8
smoothSolver:  Solving for Uy, Initial residual = 0.00677077, Final residual = 0.000534731, No Iterations 7
smoothSolver:  Solving for Uz, Initial residual = 0.00584139, Final residual = 0.000457446, No Iterations 7
GAMG:  Solving for p, Initial residual = 0.00308279, Final residual = 1.40742e-05, No Iterations 4
time step continuity errors : sum local = 2.69978e-05, global = -4.90065e-07, cumulative = 5.68047e-05
smoothSolver:  Solving for omega, Initial residual = 5.23725e-05, Final residual = 3.81805e-06, No Iterations 3
smoothSolver:  Solving for k, Initial residual = 0.000652704, Final residual = 3.24432e-05, No Iterations 4
[...]
smoothSolver:  Solving for Uy, Initial residual = 0.000582053, Final residual = 4.63849e-05, No Iterations 7
smoothSolver:  Solving for Uz, Initial residual = 0.000488993, Final residual = 3.75379e-05, No Iterations 7
GAMG:  Solving for p, Initial residual = 0.00024038, Final residual = 1.20611e-06, No Iterations 4
time step continuity errors : sum local = 2.33416e-06, global = 1.46443e-08, cumulative = 5.27218e-05
smoothSolver:  Solving for omega, Initial residual = 6.49821e-06, Final residual = 2.84123e-07, No Iterations 3
smoothSolver:  Solving for k, Initial residual = 4.17568e-05, Final residual = 3.60167e-06, No Iterations 3
ExecutionTime = 26.29 s  ClockTime = 27 s

forceCoeffs forceCoeffs1 write:
    Cm    = 0.159928
    Cd    = 0.420745
    Cl    = 0.0641337
    Cl(f) = 0.191994
    Cl(r) = -0.127861

Time = 481

smoothSolver:  Solving for Ux, Initial residual = 2.42365e-05, Final residual = 2.3134e-06, No Iterations 7
smoothSolver:  Solving for Uy, Initial residual = 0.00056666, Final residual = 4.60937e-05, No Iterations 7
smoothSolver:  Solving for Uz, Initial residual = 0.000483203, Final residual = 3.68226e-05, No Iterations 7
GAMG:  Solving for p, Initial residual = 0.000246605, Final residual = 1.31075e-06, No Iterations 4
time step continuity errors : sum local = 2.53677e-06, global = -3.86996e-09, cumulative = 5.27179e-05
smoothSolver:  Solving for omega, Initial residual = 6.31383e-06, Final residual = 2.85832e-07, No Iterations 3
smoothSolver:  Solving for k, Initial residual = 4.11196e-05, Final residual = 3.54432e-06, No Iterations 3
ExecutionTime = 26.34 s  ClockTime = 27 s

forceCoeffs forceCoeffs1 write:
    Cm    = 0.159937
    Cd    = 0.420728
    Cl    = 0.0641105
    Cl(f) = 0.191992
    Cl(r) = -0.127882

Time = 482

smoothSolver:  Solving for Ux, Initial residual = 2.44392e-05, Final residual = 2.34977e-06, No Iterations 7
smoothSolver:  Solving for Uy, Initial residual = 0.000566623, Final residual = 4.57298e-05, No Iterations 7
smoothSolver:  Solving for Uz, Initial residual = 0.000475655, Final residual = 3.67889e-05, No Iterations 7
GAMG:  Solving for p, Initial residual = 0.000234718, Final residual = 1.23416e-06, No Iterations 4
time step continuity errors : sum local = 2.38843e-06, global = -2.32905e-09, cumulative = 5.27156e-05
smoothSolver:  Solving for omega, Initial residual = 6.50196e-06, Final residual = 2.86892e-07, No Iterations 3
smoothSolver:  Solving for k, Initial residual = 4.05712e-05, Final residual = 3.4994e-06, No Iterations 3
ExecutionTime = 26.39 s  ClockTime = 27 s

forceCoeffs forceCoeffs1 write:
    Cm    = 0.159889
    Cd    = 0.420673
    Cl    = 0.0641733
    Cl(f) = 0.191976
    Cl(r) = -0.127803

Time = 483

smoothSolver:  Solving for Ux, Initial residual = 2.37656e-05, Final residual = 2.29004e-06, No Iterations 7
smoothSolver:  Solving for Uy, Initial residual = 0.000548895, Final residual = 4.47437e-05, No Iterations 7
smoothSolver:  Solving for Uz, Initial residual = 0.000464499, Final residual = 3.57954e-05, No Iterations 7
GAMG:  Solving for p, Initial residual = 0.000243734, Final residual = 1.29501e-06, No Iterations 4
time step continuity errors : sum local = 2.50623e-06, global = -7.93908e-09, cumulative = 5.27076e-05
smoothSolver:  Solving for omega, Initial residual = 6.29946e-06, Final residual = 2.83776e-07, No Iterations 3
smoothSolver:  Solving for k, Initial residual = 3.99719e-05, Final residual = 3.4537e-06, No Iterations 3
ExecutionTime = 26.43 s  ClockTime = 27 s

forceCoeffs forceCoeffs1 write:
    Cm    = 0.159897
    Cd    = 0.420648
    Cl    = 0.0641524
    Cl(f) = 0.191973
    Cl(r) = -0.127821

Time = 484

smoothSolver:  Solving for Ux, Initial residual = 2.36402e-05, Final residual = 2.25861e-06, No Iterations 7
smoothSolver:  Solving for Uy, Initial residual = 0.000547023, Final residual = 4.41482e-05, No Iterations 7
smoothSolver:  Solving for Uz, Initial residual = 0.000459735, Final residual = 3.5222e-05, No Iterations 7
GAMG:  Solving for p, Initial residual = 0.000232785, Final residual = 1.21563e-06, No Iterations 4
time step continuity errors : sum local = 2.3524e-06, global = -1.70246e-08, cumulative = 5.26906e-05
smoothSolver:  Solving for omega, Initial residual = 6.41073e-06, Final residual = 2.78018e-07, No Iterations 3
smoothSolver:  Solving for k, Initial residual = 3.94715e-05, Final residual = 3.40843e-06, No Iterations 3
ExecutionTime = 26.48 s  ClockTime = 27 s

forceCoeffs forceCoeffs1 write:
    Cm    = 0.159861
    Cd    = 0.42062
    Cl    = 0.0642212
    Cl(f) = 0.191972
    Cl(r) = -0.127751

Time = 485

smoothSolver:  Solving for Ux, Initial residual = 2.29565e-05, Final residual = 2.18909e-06, No Iterations 7
smoothSolver:  Solving for Uy, Initial residual = 0.000531716, Final residual = 4.28755e-05, No Iterations 7
smoothSolver:  Solving for Uz, Initial residual = 0.000451192, Final residual = 3.40337e-05, No Iterations 7
GAMG:  Solving for p, Initial residual = 0.000240714, Final residual = 1.28595e-06, No Iterations 4
time step continuity errors : sum local = 2.4885e-06, global = -2.60132e-08, cumulative = 5.26646e-05
smoothSolver:  Solving for omega, Initial residual = 6.4103e-06, Final residual = 2.79393e-07, No Iterations 3
smoothSolver:  Solving for k, Initial residual = 3.91312e-05, Final residual = 3.36008e-06, No Iterations 3
ExecutionTime = 26.53 s  ClockTime = 27 s

forceCoeffs forceCoeffs1 write:
    Cm    = 0.159869
    Cd    = 0.420606
    Cl    = 0.064175
    Cl(f) = 0.191956
    Cl(r) = -0.127781

Time = 486

smoothSolver:  Solving for Ux, Initial residual = 2.29734e-05, Final residual = 2.14533e-06, No Iterations 7
smoothSolver:  Solving for Uy, Initial residual = 0.000532477, Final residual = 4.17922e-05, No Iterations 7
smoothSolver:  Solving for Uz, Initial residual = 0.000443932, Final residual = 3.32282e-05, No Iterations 7
GAMG:  Solving for p, Initial residual = 0.000230878, Final residual = 1.23882e-06, No Iterations 4
time step continuity errors : sum local = 2.39701e-06, global = -3.10705e-08, cumulative = 5.26335e-05
smoothSolver:  Solving for omega, Initial residual = 7.14632e-06, Final residual = 7.06956e-07, No Iterations 2
smoothSolver:  Solving for k, Initial residual = 3.86943e-05, Final residual = 3.32647e-06, No Iterations 3
ExecutionTime = 26.58 s  ClockTime = 27 s

forceCoeffs forceCoeffs1 write:
    Cm    = 0.159839
    Cd    = 0.420578
    Cl    = 0.064231
    Cl(f) = 0.191954
    Cl(r) = -0.127723

Time = 487

smoothSolver:  Solving for Ux, Initial residual = 2.24956e-05, Final residual = 2.0889e-06, No Iterations 7
smoothSolver:  Solving for Uy, Initial residual = 0.000522728, Final residual = 4.09962e-05, No Iterations 7
smoothSolver:  Solving for Uz, Initial residual = 0.000437451, Final residual = 4.33017e-05, No Iterations 6
GAMG:  Solving for p, Initial residual = 0.000241328, Final residual = 1.28112e-06, No Iterations 4
time step continuity errors : sum local = 2.4788e-06, global = -3.76292e-08, cumulative = 5.25959e-05
smoothSolver:  Solving for omega, Initial residual = 6.69076e-06, Final residual = 2.83359e-07, No Iterations 3
smoothSolver:  Solving for k, Initial residual = 3.83731e-05, Final residual = 3.29042e-06, No Iterations 3
ExecutionTime = 26.63 s  ClockTime = 27 s

forceCoeffs forceCoeffs1 write:
    Cm    = 0.159857
    Cd    = 0.420585
    Cl    = 0.0641814
    Cl(f) = 0.191948
    Cl(r) = -0.127767

Time = 488

smoothSolver:  Solving for Ux, Initial residual = 2.256e-05, Final residual = 2.0642e-06, No Iterations 7
smoothSolver:  Solving for Uy, Initial residual = 0.000523892, Final residual = 4.02264e-05, No Iterations 7
smoothSolver:  Solving for Uz, Initial residual = 0.000441984, Final residual = 4.30676e-05, No Iterations 6
GAMG:  Solving for p, Initial residual = 0.000232818, Final residual = 1.23577e-06, No Iterations 4
time step continuity errors : sum local = 2.39071e-06, global = -4.31145e-08, cumulative = 5.25528e-05
smoothSolver:  Solving for omega, Initial residual = 6.72741e-06, Final residual = 2.74477e-07, No Iterations 3
smoothSolver:  Solving for k, Initial residual = 3.74961e-05, Final residual = 3.251e-06, No Iterations 3
ExecutionTime = 26.67 s  ClockTime = 27 s

forceCoeffs forceCoeffs1 write:
    Cm    = 0.159836
    Cd    = 0.420582
    Cl    = 0.0642446
    Cl(f) = 0.191958
    Cl(r) = -0.127714

Time = 489

smoothSolver:  Solving for Ux, Initial residual = 2.24621e-05, Final residual = 2.1006e-06, No Iterations 7
smoothSolver:  Solving for Uy, Initial residual = 0.000520989, Final residual = 4.01038e-05, No Iterations 7
smoothSolver:  Solving for Uz, Initial residual = 0.000443941, Final residual = 4.32544e-05, No Iterations 6
GAMG:  Solving for p, Initial residual = 0.000243752, Final residual = 1.38463e-06, No Iterations 4
time step continuity errors : sum local = 2.67857e-06, global = -4.59506e-08, cumulative = 5.25068e-05
smoothSolver:  Solving for omega, Initial residual = 6.39595e-06, Final residual = 2.8137e-07, No Iterations 3
smoothSolver:  Solving for k, Initial residual = 3.72625e-05, Final residual = 3.23438e-06, No Iterations 3
ExecutionTime = 26.72 s  ClockTime = 27 s

forceCoeffs forceCoeffs1 write:
    Cm    = 0.159846
    Cd    = 0.42059
    Cl    = 0.064183
    Cl(f) = 0.191938
    Cl(r) = -0.127755

Time = 490

smoothSolver:  Solving for Ux, Initial residual = 2.24154e-05, Final residual = 2.07894e-06, No Iterations 7
smoothSolver:  Solving for Uy, Initial residual = 0.00052818, Final residual = 3.99013e-05, No Iterations 7
smoothSolver:  Solving for Uz, Initial residual = 0.000441153, Final residual = 4.33527e-05, No Iterations 6
GAMG:  Solving for p, Initial residual = 0.000229496, Final residual = 1.22759e-06, No Iterations 4
time step continuity errors : sum local = 2.37443e-06, global = -4.55872e-08, cumulative = 5.24612e-05
smoothSolver:  Solving for omega, Initial residual = 6.36835e-06, Final residual = 2.70176e-07, No Iterations 3
smoothSolver:  Solving for k, Initial residual = 3.67005e-05, Final residual = 3.2206e-06, No Iterations 3
ExecutionTime = 26.77 s  ClockTime = 27 s

forceCoeffs forceCoeffs1 write:
    Cm    = 0.159837
    Cd    = 0.420598
    Cl    = 0.0642391
    Cl(f) = 0.191957
    Cl(r) = -0.127718

Time = 491

smoothSolver:  Solving for Ux, Initial residual = 2.16572e-05, Final residual = 2.05554e-06, No Iterations 7
smoothSolver:  Solving for Uy, Initial residual = 0.000511016, Final residual = 3.92446e-05, No Iterations 7
smoothSolver:  Solving for Uz, Initial residual = 0.000433178, Final residual = 3.23974e-05, No Iterations 7
GAMG:  Solving for p, Initial residual = 0.000242985, Final residual = 1.38801e-06, No Iterations 4
time step continuity errors : sum local = 2.68464e-06, global = -4.14581e-08, cumulative = 5.24198e-05
smoothSolver:  Solving for omega, Initial residual = 6.17668e-06, Final residual = 2.64244e-07, No Iterations 3
smoothSolver:  Solving for k, Initial residual = 3.67964e-05, Final residual = 3.23064e-06, No Iterations 3
ExecutionTime = 26.82 s  ClockTime = 28 s

forceCoeffs forceCoeffs1 write:
    Cm    = 0.159858
    Cd    = 0.420623
    Cl    = 0.0641694
    Cl(f) = 0.191942
    Cl(r) = -0.127773

Time = 492

smoothSolver:  Solving for Ux, Initial residual = 2.18502e-05, Final residual = 2.07338e-06, No Iterations 7
smoothSolver:  Solving for Uy, Initial residual = 0.000519625, Final residual = 3.98101e-05, No Iterations 7
smoothSolver:  Solving for Uz, Initial residual = 0.000435647, Final residual = 3.24963e-05, No Iterations 7
GAMG:  Solving for p, Initial residual = 0.000229686, Final residual = 1.22839e-06, No Iterations 4
time step continuity errors : sum local = 2.37558e-06, global = -3.12836e-08, cumulative = 5.23885e-05
smoothSolver:  Solving for omega, Initial residual = 6.91356e-06, Final residual = 6.91334e-07, No Iterations 2
smoothSolver:  Solving for k, Initial residual = 3.72093e-05, Final residual = 3.27106e-06, No Iterations 3
ExecutionTime = 26.87 s  ClockTime = 28 s

forceCoeffs forceCoeffs1 write:
    Cm    = 0.159844
    Cd    = 0.420636
    Cl    = 0.0642237
    Cl(f) = 0.191955
    Cl(r) = -0.127732

Time = 493

smoothSolver:  Solving for Ux, Initial residual = 2.17292e-05, Final residual = 2.08271e-06, No Iterations 7
smoothSolver:  Solving for Uy, Initial residual = 0.000517452, Final residual = 4.04593e-05, No Iterations 7
smoothSolver:  Solving for Uz, Initial residual = 0.000436112, Final residual = 3.30545e-05, No Iterations 7
GAMG:  Solving for p, Initial residual = 0.000240592, Final residual = 1.3923e-06, No Iterations 4
time step continuity errors : sum local = 2.6925e-06, global = -2.61989e-08, cumulative = 5.23623e-05
smoothSolver:  Solving for omega, Initial residual = 6.41143e-06, Final residual = 2.68296e-07, No Iterations 3
smoothSolver:  Solving for k, Initial residual = 3.77425e-05, Final residual = 3.33324e-06, No Iterations 3
ExecutionTime = 26.92 s  ClockTime = 28 s

forceCoeffs forceCoeffs1 write:
    Cm    = 0.159869
    Cd    = 0.420655
    Cl    = 0.0641826
    Cl(f) = 0.19196
    Cl(r) = -0.127778

Time = 494

smoothSolver:  Solving for Ux, Initial residual = 2.19928e-05, Final residual = 2.10811e-06, No Iterations 7
smoothSolver:  Solving for Uy, Initial residual = 0.00052192, Final residual = 4.1264e-05, No Iterations 7
smoothSolver:  Solving for Uz, Initial residual = 0.000435921, Final residual = 3.34404e-05, No Iterations 7
GAMG:  Solving for p, Initial residual = 0.0002255, Final residual = 1.25965e-06, No Iterations 4
time step continuity errors : sum local = 2.4357e-06, global = -1.07167e-08, cumulative = 5.23516e-05
smoothSolver:  Solving for omega, Initial residual = 6.78042e-06, Final residual = 2.69887e-07, No Iterations 3
smoothSolver:  Solving for k, Initial residual = 3.82531e-05, Final residual = 3.39775e-06, No Iterations 3
ExecutionTime = 26.96 s  ClockTime = 28 s

forceCoeffs forceCoeffs1 write:
    Cm    = 0.159854
    Cd    = 0.420661
    Cl    = 0.0642486
    Cl(f) = 0.191978
    Cl(r) = -0.12773

Time = 495

smoothSolver:  Solving for Ux, Initial residual = 2.17745e-05, Final residual = 2.12229e-06, No Iterations 7
smoothSolver:  Solving for Uy, Initial residual = 0.000514182, Final residual = 4.14998e-05, No Iterations 7
smoothSolver:  Solving for Uz, Initial residual = 0.000434869, Final residual = 3.41774e-05, No Iterations 7
GAMG:  Solving for p, Initial residual = 0.000236921, Final residual = 1.40518e-06, No Iterations 4
time step continuity errors : sum local = 2.71716e-06, global = 1.33931e-08, cumulative = 5.2365e-05
smoothSolver:  Solving for omega, Initial residual = 6.22526e-06, Final residual = 2.70895e-07, No Iterations 3
smoothSolver:  Solving for k, Initial residual = 3.8702e-05, Final residual = 3.4721e-06, No Iterations 3
ExecutionTime = 27.01 s  ClockTime = 28 s

forceCoeffs forceCoeffs1 write:
    Cm    = 0.159876
    Cd    = 0.420682
    Cl    = 0.0641854
    Cl(f) = 0.191969
    Cl(r) = -0.127783

Time = 496

smoothSolver:  Solving for Ux, Initial residual = 2.27332e-05, Final residual = 2.23478e-06, No Iterations 7
smoothSolver:  Solving for Uy, Initial residual = 0.000525714, Final residual = 4.28018e-05, No Iterations 7
smoothSolver:  Solving for Uz, Initial residual = 0.000445291, Final residual = 3.56257e-05, No Iterations 7
GAMG:  Solving for p, Initial residual = 0.00022603, Final residual = 1.35339e-06, No Iterations 4
time step continuity errors : sum local = 2.61687e-06, global = 2.08111e-08, cumulative = 5.23858e-05
smoothSolver:  Solving for omega, Initial residual = 6.48381e-06, Final residual = 2.72191e-07, No Iterations 3
smoothSolver:  Solving for k, Initial residual = 3.92844e-05, Final residual = 3.52554e-06, No Iterations 3
ExecutionTime = 27.06 s  ClockTime = 28 s

forceCoeffs forceCoeffs1 write:
    Cm    = 0.159854
    Cd    = 0.420677
    Cl    = 0.0642454
    Cl(f) = 0.191976
    Cl(r) = -0.127731

Time = 497

smoothSolver:  Solving for Ux, Initial residual = 2.22736e-05, Final residual = 2.18178e-06, No Iterations 7
smoothSolver:  Solving for Uy, Initial residual = 0.000523804, Final residual = 4.29119e-05, No Iterations 7
smoothSolver:  Solving for Uz, Initial residual = 0.000443909, Final residual = 3.58783e-05, No Iterations 7
GAMG:  Solving for p, Initial residual = 0.000233655, Final residual = 1.44473e-06, No Iterations 4
time step continuity errors : sum local = 2.79362e-06, global = 3.38158e-08, cumulative = 5.24196e-05
smoothSolver:  Solving for omega, Initial residual = 6.20563e-06, Final residual = 2.84135e-07, No Iterations 3
smoothSolver:  Solving for k, Initial residual = 3.97235e-05, Final residual = 3.57936e-06, No Iterations 3
ExecutionTime = 27.11 s  ClockTime = 28 s

forceCoeffs forceCoeffs1 write:
    Cm    = 0.159886
    Cd    = 0.420694
    Cl    = 0.064212
    Cl(f) = 0.191992
    Cl(r) = -0.12778

Time = 498

smoothSolver:  Solving for Ux, Initial residual = 2.26285e-05, Final residual = 2.18704e-06, No Iterations 7
smoothSolver:  Solving for Uy, Initial residual = 0.000526739, Final residual = 4.34423e-05, No Iterations 7
smoothSolver:  Solving for Uz, Initial residual = 0.00044333, Final residual = 3.63775e-05, No Iterations 7
GAMG:  Solving for p, Initial residual = 0.000223199, Final residual = 1.34728e-06, No Iterations 4
time step continuity errors : sum local = 2.60503e-06, global = 3.3195e-08, cumulative = 5.24528e-05
smoothSolver:  Solving for omega, Initial residual = 6.33016e-06, Final residual = 2.78699e-07, No Iterations 3
smoothSolver:  Solving for k, Initial residual = 4.00424e-05, Final residual = 3.6191e-06, No Iterations 3
ExecutionTime = 27.16 s  ClockTime = 28 s

forceCoeffs forceCoeffs1 write:
    Cm    = 0.159863
    Cd    = 0.420693
    Cl    = 0.064253
    Cl(f) = 0.19199
    Cl(r) = -0.127737

Time = 499

smoothSolver:  Solving for Ux, Initial residual = 2.23562e-05, Final residual = 2.1734e-06, No Iterations 7
smoothSolver:  Solving for Uy, Initial residual = 0.000517318, Final residual = 4.29997e-05, No Iterations 7
smoothSolver:  Solving for Uz, Initial residual = 0.000439228, Final residual = 3.61077e-05, No Iterations 7
GAMG:  Solving for p, Initial residual = 0.000230073, Final residual = 1.3754e-06, No Iterations 4
time step continuity errors : sum local = 2.65964e-06, global = 3.58745e-08, cumulative = 5.24887e-05
smoothSolver:  Solving for omega, Initial residual = 6.1602e-06, Final residual = 2.79324e-07, No Iterations 3
smoothSolver:  Solving for k, Initial residual = 4.02981e-05, Final residual = 3.66046e-06, No Iterations 3
ExecutionTime = 27.2 s  ClockTime = 28 s

forceCoeffs forceCoeffs1 write:
    Cm    = 0.159865
    Cd    = 0.420677
    Cl    = 0.0641915
    Cl(f) = 0.191961
    Cl(r) = -0.127769

Time = 500

smoothSolver:  Solving for Ux, Initial residual = 2.24283e-05, Final residual = 2.16616e-06, No Iterations 7
smoothSolver:  Solving for Uy, Initial residual = 0.000517249, Final residual = 4.29082e-05, No Iterations 7
smoothSolver:  Solving for Uz, Initial residual = 0.000438548, Final residual = 3.6109e-05, No Iterations 7
GAMG:  Solving for p, Initial residual = 0.000220975, Final residual = 1.27285e-06, No Iterations 4
time step continuity errors : sum local = 2.46128e-06, global = 4.28751e-08, cumulative = 5.25315e-05
smoothSolver:  Solving for omega, Initial residual = 6.20179e-06, Final residual = 2.76437e-07, No Iterations 3
smoothSolver:  Solving for k, Initial residual = 4.05089e-05, Final residual = 3.69326e-06, No Iterations 3
ExecutionTime = 27.27 s  ClockTime = 28 s

streamLine streamLines write:
    seeded 20 particles
    Tracks:20
    Total samples:19802
    Writing data to "/pfs/data2/home/es/es_es/es_asaramet/OpenFOAM/motorBike/postProcessing/sets/streamLines/500"
forceCoeffs forceCoeffs1 write:
    Cm    = 0.159859
    Cd    = 0.420677
    Cl    = 0.0642694
    Cl(f) = 0.191994
    Cl(r) = -0.127724

End

Finalising parallel run
EOF
